Material: mixed organic / C6H4S4-C12H4N4 / Querry
Optical constants. M. R. Querry. Optical constants, Contractor Report CRDC-CR-85034 (1985)
Comments: Tetrathiafulvalene:Tetracyanoquinodimethane (TTF:TCNQ).
wavelength (um)	n	k
0.2100	1.713	0.235
0.2300	1.740	0.103
0.2500	1.684	0.034
0.2700	1.623	0.033
0.2900	1.567	0.057
0.3100	1.507	0.109
0.3300	1.478	0.241
0.3500	1.587	0.356
0.3700	1.714	0.362
0.3900	1.797	0.304
0.4100	1.824	0.249
0.4300	1.843	0.204
0.4500	1.845	0.149
0.4700	1.809	0.108
0.4900	1.777	0.104
0.5100	1.759	0.106
0.5300	1.747	0.113
0.5500	1.744	0.115
0.5700	1.736	0.114
0.5900	1.729	0.116
0.6100	1.724	0.117
0.6300	1.717	0.115
0.6500	1.707	0.112
0.6700	1.691	0.118
0.6900	1.680	0.127
0.7100	1.671	0.137
0.7300	1.663	0.149
0.7500	1.658	0.162
0.7700	1.657	0.175
0.7900	1.657	0.184
0.8100	1.653	0.195
0.8300	1.653	0.212
0.8500	1.663	0.227
0.8700	1.676	0.233
0.8900	1.683	0.232
0.9100	1.684	0.231
0.9300	1.684	0.237
0.9500	1.690	0.247
0.9700	1.705	0.253
0.9900	1.725	0.248
1.0100	1.741	0.227
1.0300	1.740	0.198
1.0500	1.724	0.175
1.0700	1.701	0.163
1.0900	1.680	0.158
1.1100	1.659	0.158
1.1300	1.641	0.162
1.1500	1.625	0.165
1.1700	1.608	0.169
1.1900	1.590	0.176
1.2100	1.576	0.183
1.2300	1.560	0.191
1.2500	1.544	0.199
1.2700	1.529	0.207
1.2900	1.512	0.217
1.3100	1.495	0.228
1.3300	1.479	0.240
1.3500	1.463	0.253
1.3700	1.446	0.268
1.3900	1.429	0.284
1.4100	1.412	0.301
1.4300	1.396	0.320
1.4500	1.379	0.341
1.4700	1.365	0.364
1.4900	1.350	0.388
1.5100	1.337	0.414
1.5300	1.325	0.440
1.5500	1.313	0.471
1.5700	1.306	0.501
1.5900	1.299	0.532
1.6100	1.296	0.565
1.6300	1.294	0.597
1.6500	1.295	0.629
1.6700	1.297	0.661
1.6900	1.302	0.692
1.7100	1.308	0.723
1.7300	1.316	0.753
1.7500	1.325	0.782
1.7700	1.335	0.810
1.7900	1.348	0.838
1.8100	1.360	0.862
1.8300	1.372	0.888
1.8500	1.388	0.912
1.8700	1.400	0.934
1.8900	1.415	0.957
1.9100	1.430	0.979
1.9300	1.446	1.000
1.9500	1.462	1.020
1.9700	1.478	1.039
1.9900	1.495	1.057
2.0100	1.512	1.076
2.0300	1.529	1.093
2.0500	1.547	1.109
2.0700	1.565	1.125
2.0900	1.583	1.139
2.1100	1.600	1.153
2.1300	1.618	1.166
2.1500	1.636	1.180
2.1700	1.654	1.192
2.1900	1.671	1.203
2.2100	1.689	1.215
2.2300	1.706	1.226
2.2500	1.724	1.237
2.2700	1.742	1.248
2.2900	1.760	1.257
2.3100	1.778	1.267
2.3300	1.796	1.275
2.3500	1.814	1.284
2.3700	1.832	1.291
2.3900	1.849	1.298
2.4100	1.867	1.306
2.4300	1.885	1.312
2.4500	1.901	1.318
2.4712	1.919	1.325
2.4900	1.937	1.331
2.5063	1.952	1.335
2.5189	1.963	1.338
2.5316	1.974	1.340
2.5445	1.985	1.344
2.5575	1.997	1.345
2.5707	2.006	1.348
2.5840	2.018	1.351
2.5974	2.029	1.353
2.6110	2.041	1.356
2.6247	2.053	1.357
2.6385	2.065	1.358
2.6525	2.076	1.360
2.6667	2.087	1.361
2.6810	2.097	1.364
2.6954	2.110	1.366
2.7100	2.122	1.366
2.7248	2.132	1.368
2.7397	2.146	1.372
2.7548	2.159	1.372
2.7701	2.172	1.371
2.7855	2.184	1.369
2.8011	2.193	1.368
2.8169	2.204	1.371
2.8329	2.217	1.372
2.8490	2.229	1.372
2.8653	2.241	1.372
2.8818	2.254	1.372
2.8986	2.266	1.372
2.9155	2.279	1.371
2.9326	2.290	1.369
2.9499	2.302	1.370
2.9674	2.316	1.370
2.9851	2.329	1.368
3.0030	2.342	1.366
3.0211	2.355	1.364
3.0395	2.367	1.362
3.0581	2.381	1.359
3.0769	2.393	1.357
3.0960	2.407	1.353
3.1153	2.418	1.348
3.1348	2.429	1.345
3.1546	2.438	1.338
3.1746	2.452	1.335
3.1949	2.461	1.331
3.2154	2.467	1.326
3.2362	2.470	1.317
3.2573	2.494	1.460
3.2787	2.543	1.339
3.3003	2.548	1.326
3.3223	2.555	1.313
3.3445	2.568	1.304
3.3670	2.574	1.300
3.3898	2.587	1.289
3.4130	2.594	1.279
3.4364	2.605	1.270
3.4602	2.610	1.263
3.4843	2.613	1.254
3.5088	2.621	1.253
3.5336	2.627	1.252
3.5587	2.638	1.250
3.5842	2.648	1.247
3.6101	2.659	1.238
3.6364	2.670	1.235
3.6630	2.680	1.227
3.6900	2.690	1.227
3.7175	2.703	1.215
3.7453	2.712	1.218
3.7736	2.723	1.203
3.8023	2.737	1.197
3.8314	2.743	1.188
3.8610	2.756	1.186
3.8911	2.769	1.178
3.9216	2.775	1.168
3.9526	2.783	1.154
3.9841	2.796	1.148
4.0161	2.804	1.140
4.0486	2.811	1.125
4.0816	2.814	1.117
4.1152	2.828	1.107
4.1494	2.836	1.098
4.1841	2.840	1.081
4.2194	2.842	1.063
4.2553	2.838	1.055
4.2918	2.838	1.046
4.3290	2.833	1.047
4.3668	2.839	1.044
4.4053	2.847	1.033
4.4444	2.840	1.019
4.4843	2.829	1.006
4.5249	2.696	1.065
4.5662	2.870	1.047
4.6083	2.875	1.048
4.6512	2.905	1.024
4.6948	2.902	1.011
4.7393	2.902	1.007
4.7847	2.910	1.006
4.8309	2.926	1.013
4.8780	2.951	0.986
4.9261	2.948	0.962
4.9751	2.949	0.947
5.0251	2.951	0.935
5.0761	2.948	0.922
5.1282	2.945	0.914
5.1813	2.940	0.907
5.2356	2.950	0.896
5.2910	2.948	0.890
5.3476	2.946	0.881
5.4054	2.947	0.875
5.4645	2.951	0.867
5.5249	2.950	0.857
5.5866	2.946	0.849
5.6497	2.947	0.840
5.7143	2.943	0.829
5.7803	2.931	0.822
5.8480	2.919	0.817
5.9172	2.915	0.822
5.9880	2.916	0.819
6.0606	2.910	0.813
6.1350	2.898	0.815
6.2112	2.894	0.808
6.2893	2.879	0.826
6.3694	2.891	0.843
6.4516	2.883	0.824
6.5359	2.850	0.832
6.6225	2.851	0.891
6.7114	2.889	0.874
6.8027	2.886	0.893
6.8966	2.906	0.908
6.9930	2.916	0.894
7.0922	2.903	0.899
7.1942	2.900	0.908
7.2993	2.912	0.932
7.4074	2.899	0.946
7.5188	2.977	0.974
7.6336	2.973	0.982
7.7519	2.990	1.001
7.8740	3.011	1.008
8.0000	3.082	1.186
8.1301	3.143	0.993
8.2645	3.171	0.981
8.4034	3.171	0.925
8.5470	3.157	0.899
8.6957	3.147	0.889
8.8496	3.147	0.893
9.0090	3.148	0.894
9.1743	3.170	0.945
9.3458	3.183	0.900
9.5238	3.197	0.916
9.7087	3.236	0.907
9.9010	3.259	0.882
10.1010	3.272	0.853
10.3093	3.270	0.825
10.5263	3.263	0.811
10.7527	3.258	0.796
10.9890	3.248	0.782
11.2360	3.234	0.789
11.4943	3.232	0.775
11.7647	3.211	0.780
12.0482	3.176	0.802
12.3457	3.350	0.840
12.6582	3.283	0.782
12.9870	3.269	0.785
13.3333	3.256	0.793
13.6986	3.250	0.809
14.0845	3.241	0.874
14.4928	3.317	0.864
14.9254	3.317	0.824
15.3846	3.315	0.833
15.8730	3.316	0.867
16.3934	3.351	0.847
16.9492	3.379	0.866
17.5439	3.407	0.841
18.1818	3.393	0.824
18.8679	3.382	0.835
19.6078	3.385	0.860
20.4082	3.380	0.866
21.2766	3.411	0.909
22.2222	3.415	0.936
23.2558	3.423	0.944
24.3902	3.442	0.986
25.6410	3.481	1.029
27.0270	3.532	1.061
28.5714	3.576	1.092
30.3030	3.635	1.125
32.2581	3.698	1.159
34.4828	3.762	1.180
37.0370	3.826	1.219
40.0000	3.894	1.304
43.4783	4.154	1.355
47.6190	4.302	1.328
52.6316	4.503	1.280
