Material: immersion oils / Leica Type F / Wang
Optical constants. K. Wang, W. Wen, Y. Wang, K. Wang, J. He, J. Wang, P. Zhai, Y. Yang, P. Qiu. Order-of-magnitude multiphoton signal enhancement based on characterization of absorption spectra of immersion oils at the 1700-nm window, Opt. Express 25, 5909-5916 (2017)
Comments: 22 °C.
Specs: {"temperature": "22 °C"}
wavelength (um)	k
1.200	1.09904E-05
1.202	9.97537E-06
1.204	9.75665E-06
1.206	9.18168E-06
1.208	8.76163E-06
1.210	8.17934E-06
1.212	7.75981E-06
1.214	7.21838E-06
1.216	6.87930E-06
1.218	6.48518E-06
1.220	6.22574E-06
1.222	5.69109E-06
1.224	5.32852E-06
1.226	4.66512E-06
1.228	4.76459E-06
1.230	4.16197E-06
1.232	3.92422E-06
1.234	3.75531E-06
1.236	3.73120E-06
1.238	3.27598E-06
1.240	3.29262E-06
1.242	3.06468E-06
1.244	2.89103E-06
1.246	2.63312E-06
1.248	2.50020E-06
1.250	2.43547E-06
1.252	2.51777E-06
1.254	2.20007E-06
1.256	2.34361E-06
1.258	2.17065E-06
1.260	1.92203E-06
1.262	1.85569E-06
1.264	1.88951E-06
1.266	1.90025E-06
1.268	1.62062E-06
1.270	1.88685E-06
1.272	1.43534E-06
1.274	1.30924E-06
1.276	1.47295E-06
1.278	1.32108E-06
1.280	1.20785E-06
1.282	1.37613E-06
1.284	1.24299E-06
1.286	1.40989E-06
1.288	1.28427E-06
1.290	1.12674E-06
1.292	1.34748E-06
1.294	1.26451E-06
1.296	1.23284E-06
1.298	1.25262E-06
1.300	1.42327E-06
1.302	1.19680E-06
1.304	1.28829E-06
1.306	1.20453E-06
1.308	1.11644E-06
1.310	1.22823E-06
1.312	1.31823E-06
1.314	1.20385E-06
1.316	1.02284E-06
1.318	1.17333E-06
1.320	1.01177E-06
1.322	1.24958E-06
1.324	1.33228E-06
1.326	1.12579E-06
1.328	1.02804E-06
1.330	1.23883E-06
1.332	1.24271E-06
1.334	1.36273E-06
1.336	1.33819E-06
1.338	1.47510E-06
1.340	1.60420E-06
1.342	1.68445E-06
1.344	1.67669E-06
1.346	1.69150E-06
1.348	2.00274E-06
1.350	2.11497E-06
1.352	2.45668E-06
1.354	2.97513E-06
1.356	3.36044E-06
1.358	3.68895E-06
1.360	4.02663E-06
1.362	4.44019E-06
1.364	4.97152E-06
1.366	5.34177E-06
1.368	6.03052E-06
1.370	6.69204E-06
1.372	7.21714E-06
1.374	7.85287E-06
1.376	8.08702E-06
1.378	8.08408E-06
1.380	8.20124E-06
1.382	8.08852E-06
1.384	8.05375E-06
1.386	8.10984E-06
1.388	7.85667E-06
1.390	7.85527E-06
1.392	7.85372E-06
1.394	8.11627E-06
1.396	8.28988E-06
1.398	8.85889E-06
1.400	9.20078E-06
1.402	9.37023E-06
1.404	9.62370E-06
1.406	9.48502E-06
1.408	9.30714E-06
1.410	9.17819E-06
1.412	9.29908E-06
1.414	9.00777E-06
1.416	8.77836E-06
1.418	8.55480E-06
1.420	8.66439E-06
1.422	8.76995E-06
1.424	8.85843E-06
1.426	8.76636E-06
1.428	8.90945E-06
1.430	8.71232E-06
1.432	8.34401E-06
1.434	8.28560E-06
1.436	8.16562E-06
1.438	7.86734E-06
1.440	7.93329E-06
1.442	7.69771E-06
1.444	7.27184E-06
1.446	7.18249E-06
1.448	7.07305E-06
1.450	6.81939E-06
1.452	6.81990E-06
1.454	6.75605E-06
1.456	6.63187E-06
1.458	6.51416E-06
1.460	6.49185E-06
1.462	6.48061E-06
1.464	6.43589E-06
1.466	6.18056E-06
1.468	5.91096E-06
1.470	5.81350E-06
1.472	5.67991E-06
1.474	5.56153E-06
1.476	5.54429E-06
1.478	5.49311E-06
1.480	5.24969E-06
1.482	5.34276E-06
1.484	5.37040E-06
1.486	5.26648E-06
1.488	5.13952E-06
1.490	4.97806E-06
1.492	5.01656E-06
1.494	5.00510E-06
1.496	5.03001E-06
1.498	4.97499E-06
1.500	4.89688E-06
1.502	4.65802E-06
1.504	4.31750E-06
1.506	4.34158E-06
1.508	4.14706E-06
1.510	3.95657E-06
1.512	3.95255E-06
1.514	3.85151E-06
1.516	3.70146E-06
1.518	3.51862E-06
1.520	3.36541E-06
1.522	3.35361E-06
1.524	3.52319E-06
1.526	3.50681E-06
1.528	3.42507E-06
1.530	3.52306E-06
1.532	3.43635E-06
1.534	3.34257E-06
1.536	3.40316E-06
1.538	3.44283E-06
1.540	3.25209E-06
1.542	3.21398E-06
1.544	3.16396E-06
1.546	3.24114E-06
1.548	3.31395E-06
1.550	3.30404E-06
1.552	3.39600E-06
1.554	3.31727E-06
1.556	3.30730E-06
1.558	3.27584E-06
1.560	3.23958E-06
1.562	3.28189E-06
1.564	3.24316E-06
1.566	3.22338E-06
1.568	3.22026E-06
1.570	3.16689E-06
1.572	3.24048E-06
1.574	3.38401E-06
1.576	3.32811E-06
1.578	3.32995E-06
1.580	3.38962E-06
1.582	3.45925E-06
1.584	3.33543E-06
1.586	3.18453E-06
1.588	3.39225E-06
1.590	3.43790E-06
1.592	3.45920E-06
1.594	3.48054E-06
1.596	3.59947E-06
1.598	3.81876E-06
1.600	3.62555E-06
1.602	3.53957E-06
1.604	3.77668E-06
1.606	3.86484E-06
1.608	4.07580E-06
1.610	4.17683E-06
1.612	4.30016E-06
1.614	4.54452E-06
1.616	4.74755E-06
1.618	5.31918E-06
1.620	6.05052E-06
1.622	6.65496E-06
1.624	6.94826E-06
1.626	7.14055E-06
1.628	7.66145E-06
1.630	8.00941E-06
1.632	8.44028E-06
1.634	8.59040E-06
1.636	8.91572E-06
1.638	9.31922E-06
1.640	9.67123E-06
1.642	9.89862E-06
1.644	1.00388E-05
1.646	1.06315E-05
1.648	1.16383E-05
1.650	1.33204E-05
1.652	1.57102E-05
1.654	1.85276E-05
1.656	2.24542E-05
1.658	2.66688E-05
1.660	3.03458E-05
1.662	3.29201E-05
1.664	3.43496E-05
1.666	3.57977E-05
1.668	3.85735E-05
1.670	4.14835E-05
1.672	4.35808E-05
1.674	4.46706E-05
1.676	4.69889E-05
1.678	5.08191E-05
1.680	5.55433E-05
1.682	5.91512E-05
1.684	6.37111E-05
1.686	6.84259E-05
1.688	7.30177E-05
1.690	7.82189E-05
1.692	8.44036E-05
1.694	9.14201E-05
1.696	9.62257E-05
1.698	9.76304E-05
1.700	1.02324E-04
1.702	1.05498E-04
1.704	1.14976E-04
1.706	1.17315E-04
1.708	1.12051E-04
1.710	1.09357E-04
1.712	1.06508E-04
1.714	9.92858E-05
1.716	9.77849E-05
1.718	9.57163E-05
1.720	9.56491E-05
1.722	9.15638E-05
1.724	9.15175E-05
1.726	8.81790E-05
1.728	9.04660E-05
1.730	9.30961E-05
1.732	9.98444E-05
1.734	1.04641E-04
1.736	1.06018E-04
1.738	1.07374E-04
1.740	1.04201E-04
1.742	1.05533E-04
1.744	1.08046E-04
1.746	1.07850E-04
1.748	1.08534E-04
1.750	1.02488E-04
1.752	1.01527E-04
1.754	1.00333E-04
1.756	9.61709E-05
1.758	9.55289E-05
1.760	9.17596E-05
1.762	8.30365E-05
1.764	7.57073E-05
1.766	6.66867E-05
1.768	6.11118E-05
1.770	5.55000E-05
1.772	5.02647E-05
1.774	4.58601E-05
1.776	4.19526E-05
1.778	3.89346E-05
1.780	3.69834E-05
1.782	3.51338E-05
1.784	3.48492E-05
1.786	3.50845E-05
1.788	3.57109E-05
1.790	3.59694E-05
1.792	3.70549E-05
1.794	3.77400E-05
1.796	3.93726E-05
1.798	4.14235E-05
1.800	4.25195E-05
1.802	4.29160E-05
1.804	4.38067E-05
1.806	4.50935E-05
1.808	4.50026E-05
1.810	4.45161E-05
1.812	4.44520E-05
1.814	4.45979E-05
1.816	4.41479E-05
1.818	4.47823E-05
1.820	4.38422E-05
1.822	4.33896E-05
1.824	4.37966E-05
1.826	4.28324E-05
1.828	4.23379E-05
1.830	4.17136E-05
1.832	4.18935E-05
1.834	4.16564E-05
1.836	4.06729E-05
1.838	4.04253E-05
1.840	3.96039E-05
1.842	3.85444E-05
1.844	3.87974E-05
1.846	3.84956E-05
1.848	3.62855E-05
1.850	3.75056E-05
1.852	3.76367E-05
1.854	3.75867E-05
1.856	3.81317E-05
1.858	3.80678E-05
1.860	3.73619E-05
1.862	3.74958E-05
1.864	3.69612E-05
1.866	3.79240E-05
1.868	3.83384E-05
1.870	3.86020E-05
1.872	3.84976E-05
1.874	3.79035E-05
1.876	3.77004E-05
1.878	3.78065E-05
1.880	3.82516E-05
1.882	3.84274E-05
1.884	3.87559E-05
1.886	3.78208E-05
1.888	3.78782E-05
1.890	3.70583E-05
1.892	3.60084E-05
1.894	3.56965E-05
1.896	3.67097E-05
1.898	3.64036E-05
1.900	3.63753E-05
