Material: semiconductor alloys / Si-Ge / Jellison-11
Optical constants. G. E. Jellison Jr., T. E. Haynes, H. H. Burke. Optical functions of silicon-germanium alloys determined using spectroscopic ellipsometry, Opt. Mat. 2, 105-117 (1993)
Comments: SixGe1-x, x = 0.11. 8-μm film grown on Ge substrate.
Specs: {"n_is_absolute": true, "λ_is_vacuum": false, "x": 0.11, "thickness": "8 μm", "substrate": "Ge"}
wavelength (um)	n	k
0.240	1.571	3.177
0.242	1.564	3.216
0.244	1.579	3.265
0.246	1.601	3.313
0.248	1.613	3.368
0.250	1.652	3.427
0.252	1.672	3.484
0.254	1.705	3.546
0.256	1.731	3.610
0.258	1.766	3.679
0.260	1.809	3.750
0.262	1.846	3.822
0.264	1.896	3.895
0.266	1.948	3.979
0.268	2.015	4.067
0.270	2.085	4.156
0.272	2.170	4.258
0.274	2.280	4.356
0.276	2.394	4.463
0.278	2.537	4.567
0.280	2.739	4.659
0.282	2.964	4.723
0.284	3.211	4.723
0.286	3.453	4.674
0.288	3.691	4.570
0.290	3.866	4.434
0.292	3.994	4.281
0.294	4.085	4.133
0.296	4.165	3.988
0.298	4.201	3.858
0.300	4.233	3.739
0.304	4.274	3.538
0.308	4.276	3.379
0.312	4.279	3.253
0.316	4.284	3.144
0.320	4.288	3.060
0.324	4.296	2.976
0.328	4.296	2.906
0.332	4.306	2.847
0.336	4.315	2.789
0.340	4.317	2.741
0.344	4.328	2.694
0.348	4.336	2.654
0.352	4.353	2.614
0.356	4.368	2.574
0.360	4.384	2.540
0.364	4.402	2.505
0.368	4.420	2.468
0.372	4.444	2.423
0.376	4.458	2.379
0.380	4.476	2.338
0.384	4.479	2.287
0.388	4.487	2.241
0.392	4.486	2.195
0.396	4.482	2.149
0.400	4.468	2.115
0.404	4.449	2.084
0.408	4.436	2.064
0.412	4.423	2.049
0.416	4.410	2.040
0.420	4.402	2.039
0.430	4.395	2.058
0.440	4.421	2.077
0.450	4.471	2.101
0.460	4.537	2.125
0.470	4.632	2.149
0.480	4.749	2.167
0.490	4.902	2.165
0.500	5.086	2.106
0.510	5.256	1.982
0.520	5.362	1.837
0.530	5.453	1.709
0.540	5.580	1.560
0.550	5.687	1.326
0.560	5.686	1.054
0.570	5.597	0.839
0.580	5.488	0.683
0.590	5.378	0.575
0.600	5.287	0.495
0.610	5.200	0.434
0.620	5.127	0.388
0.630	5.055	0.347
0.640	4.995	0.318
0.650	4.947	0.290
0.660	4.901	0.266
0.670	4.857	0.245
0.680	4.810	0.230
0.690	4.773	0.215
0.700	4.741	0.203
0.710	4.707	0.188
0.720	4.671	0.181
0.730	4.647	0.168
0.740	4.620	0.163
0.750	4.596	0.154
0.760	4.579	0.144
0.770	4.554	0.141
0.780	4.529	0.133
0.790	4.516	0.125
0.800	4.494	0.119
0.810	4.493	0.110
0.820	4.466	0.112
0.830	4.459	0.105
0.840	4.425	0.102
