Material: semiconductor alloys / Si-Ge / Jellison-98
Optical constants. G. E. Jellison Jr., T. E. Haynes, H. H. Burke. Optical functions of silicon-germanium alloys determined using spectroscopic ellipsometry, Opt. Mat. 2, 105-117 (1993)
Comments: SixGe1-x, x = 0.98. 8-μm film grown on Si substrate.
Specs: {"n_is_absolute": true, "λ_is_vacuum": false, "x": 0.98, "thickness": "8 μm", "substrate": "Si"}
wavelength (um)	n	k
0.240	1.620	3.404
0.242	1.619	3.434
0.244	1.641	3.464
0.246	1.635	3.538
0.248	1.643	3.596
0.250	1.668	3.650
0.252	1.687	3.727
0.254	1.711	3.816
0.256	1.723	3.884
0.258	1.758	3.980
0.260	1.796	4.077
0.262	1.843	4.187
0.264	1.886	4.300
0.266	1.970	4.423
0.268	2.060	4.551
0.270	2.165	4.676
0.272	2.299	4.808
0.274	2.470	4.935
0.276	2.652	5.040
0.278	2.849	5.126
0.280	3.076	5.196
0.282	3.308	5.234
0.284	3.559	5.251
0.286	3.815	5.234
0.288	4.106	5.177
0.290	4.362	5.059
0.292	4.593	4.890
0.294	4.754	4.694
0.296	4.880	4.486
0.298	4.950	4.295
0.300	4.987	4.127
0.304	5.032	3.846
0.308	5.031	3.644
0.312	5.028	3.490
0.316	5.038	3.369
0.320	5.055	3.269
0.324	5.084	3.190
0.328	5.118	3.117
0.332	5.153	3.058
0.336	5.206	3.006
0.340	5.257	2.978
0.344	5.340	2.950
0.348	5.441	2.925
0.352	5.582	2.882
0.356	5.752	2.820
0.360	5.937	2.741
0.364	6.164	2.608
0.368	6.415	2.377
0.372	6.622	2.019
0.376	6.680	1.582
0.380	6.572	1.171
0.384	6.375	0.863
0.388	6.184	0.663
0.392	5.992	0.526
0.396	5.827	0.429
0.400	5.678	0.359
0.404	5.544	0.308
0.408	5.426	0.267
0.412	5.325	0.234
0.416	5.236	0.208
0.420	5.152	0.187
0.430	4.964	0.147
0.440	4.834	0.119
0.450	4.712	0.098
0.460	4.611	0.083
0.470	4.522	0.070
0.480	4.443	0.064
0.490	4.371	0.057
0.500	4.317	0.049
0.510	4.262	0.042
0.520	4.214	0.038
0.530	4.172	0.033
0.540	4.130	0.031
0.550	4.095	0.029
0.560	4.063	0.029
0.570	4.037	0.024
0.580	4.001	0.021
0.590	3.979	0.021
0.600	3.957	0.021
0.610	3.935	0.017
0.620	3.918	0.016
0.630	3.892	0.014
0.640	3.873	0.014
0.650	3.858	0.014
0.660	3.840	0.011
0.670	3.831	0.013
0.680	3.814	0.013
0.690	3.800	0.013
0.700	3.789	0.011
0.710	3.777	0.009
0.720	3.760	0.014
0.730	3.753	0.008
0.740	3.744	0.011
0.750	3.734	0.008
0.760	3.725	0.009
0.770	3.716	0.009
0.780	3.705	0.009
0.790	3.702	0.006
0.800	3.697	0.004
0.810	3.690	0.003
0.820	3.683	0.003
0.830	3.697	0.002
0.840	3.671	0.003
