Material: semiconductor alloys / Si-Ge / Jellison-28
Optical constants. G. E. Jellison Jr., T. E. Haynes, H. H. Burke. Optical functions of silicon-germanium alloys determined using spectroscopic ellipsometry, Opt. Mat. 2, 105-117 (1993)
Comments: SixGe1-x, x = 0.28. 8-μm film grown on Ge substrate.
Specs: {"n_is_absolute": true, "λ_is_vacuum": false, "x": 0.28, "thickness": "8 μm", "substrate": "Ge"}
wavelength (um)	n	k
0.240	1.655	3.144
0.242	1.634	3.176
0.244	1.636	3.221
0.246	1.661	3.270
0.248	1.674	3.333
0.250	1.691	3.385
0.252	1.724	3.451
0.254	1.766	3.515
0.256	1.783	3.573
0.258	1.821	3.638
0.260	1.866	3.715
0.262	1.906	3.792
0.264	1.953	3.864
0.266	2.008	3.945
0.268	2.081	4.031
0.270	2.145	4.115
0.272	2.237	4.212
0.274	2.348	4.307
0.276	2.459	4.398
0.278	2.601	4.482
0.280	2.773	4.571
0.282	2.975	4.631
0.284	3.201	4.650
0.286	3.425	4.623
0.288	3.670	4.546
0.290	3.846	4.432
0.292	3.996	4.298
0.294	4.103	4.155
0.296	4.201	4.009
0.298	4.245	3.887
0.300	4.286	3.767
0.304	4.347	3.556
0.308	4.359	3.394
0.312	4.366	3.260
0.316	4.382	3.147
0.320	4.386	3.056
0.324	4.398	2.973
0.328	4.400	2.897
0.332	4.408	2.831
0.336	4.426	2.774
0.340	4.432	2.725
0.344	4.445	2.679
0.348	4.457	2.637
0.352	4.478	2.593
0.356	4.498	2.554
0.360	4.517	2.520
0.364	4.542	2.484
0.368	4.570	2.441
0.372	4.596	2.398
0.376	4.622	2.347
0.380	4.639	2.302
0.384	4.656	2.250
0.388	4.668	2.201
0.392	4.673	2.151
0.396	4.672	2.105
0.400	4.665	2.069
0.404	4.658	2.041
0.408	4.651	2.022
0.412	4.652	2.006
0.416	4.655	1.996
0.420	4.661	1.988
0.430	4.701	1.983
0.440	4.769	1.974
0.450	4.867	1.949
0.460	4.990	1.906
0.470	5.128	1.827
0.480	5.250	1.693
0.490	5.334	1.545
0.500	5.421	1.395
0.510	5.497	1.181
0.520	5.485	0.949
0.530	5.418	0.759
0.540	5.315	0.615
0.550	5.213	0.511
0.560	5.122	0.434
0.570	5.039	0.378
0.580	4.963	0.323
0.590	4.905	0.286
0.600	4.844	0.253
0.610	4.789	0.226
0.620	4.746	0.202
0.630	4.694	0.180
0.640	4.655	0.162
0.650	4.617	0.142
0.660	4.581	0.128
0.670	4.549	0.114
0.680	4.519	0.105
0.690	4.492	0.092
0.700	4.461	0.079
0.710	4.437	0.069
0.720	4.411	0.057
0.730	4.381	0.056
0.740	4.333	0.052
0.750	4.315	0.053
0.760	4.307	0.052
0.770	4.290	0.046
0.780	4.268	0.042
0.790	4.258	0.042
0.800	4.248	0.042
0.810	4.240	0.037
0.820	4.219	0.032
0.830	4.216	0.030
0.840	4.166	0.037
