Material: semiconductor alloys / Si-Ge / Jellison-65
Optical constants. G. E. Jellison Jr., T. E. Haynes, H. H. Burke. Optical functions of silicon-germanium alloys determined using spectroscopic ellipsometry, Opt. Mat. 2, 105-117 (1993)
Comments: SixGe1-x, x = 0.65. 8-μm film grown on Si substrate.
Specs: {"n_is_absolute": true, "λ_is_vacuum": false, "x": 0.65, "thickness": "8 μm", "substrate": "Si"}
wavelength (um)	n	k
0.240	1.572	3.271
0.242	1.576	3.304
0.244	1.601	3.351
0.246	1.616	3.393
0.248	1.635	3.463
0.250	1.655	3.510
0.252	1.675	3.572
0.254	1.710	3.638
0.256	1.737	3.705
0.258	1.769	3.777
0.260	1.803	3.848
0.262	1.856	3.934
0.264	1.915	4.011
0.266	1.968	4.106
0.268	2.030	4.188
0.270	2.128	4.290
0.272	2.214	4.385
0.274	2.323	4.486
0.276	2.441	4.585
0.278	2.598	4.671
0.280	2.778	4.762
0.282	2.988	4.832
0.284	3.203	4.870
0.286	3.466	4.862
0.288	3.697	4.792
0.290	3.916	4.684
0.292	4.093	4.542
0.294	4.232	4.381
0.296	4.334	4.228
0.298	4.398	4.086
0.300	4.443	3.954
0.304	4.503	3.727
0.308	4.523	3.552
0.312	4.534	3.414
0.316	4.552	3.298
0.320	4.570	3.200
0.324	4.586	3.124
0.328	4.606	3.049
0.332	4.630	2.981
0.336	4.649	2.929
0.340	4.667	2.883
0.344	4.703	2.831
0.348	4.727	2.797
0.352	4.761	2.764
0.356	4.809	2.727
0.360	4.855	2.701
0.364	4.909	2.671
0.368	4.974	2.635
0.372	5.045	2.593
0.376	5.116	2.544
0.380	5.190	2.487
0.384	5.269	2.415
0.388	5.338	2.347
0.392	5.401	2.277
0.396	5.469	2.196
0.400	5.543	2.108
0.404	5.619	2.002
0.408	5.689	1.885
0.412	5.749	1.751
0.416	5.794	1.605
0.420	5.816	1.458
0.430	5.777	1.067
0.440	5.633	0.770
0.450	5.442	0.565
0.460	5.266	0.433
0.470	5.117	0.346
0.480	4.987	0.285
0.490	4.881	0.235
0.500	4.790	0.196
0.510	4.703	0.165
0.520	4.626	0.146
0.530	4.565	0.126
0.540	4.502	0.114
0.550	4.449	0.101
0.560	4.400	0.090
0.570	4.359	0.080
0.580	4.315	0.071
0.590	4.277	0.065
0.600	4.246	0.059
0.610	4.214	0.053
0.620	4.181	0.046
0.630	4.152	0.045
0.640	4.128	0.045
0.650	4.106	0.043
0.660	4.087	0.043
0.670	4.069	0.040
0.680	4.052	0.036
0.690	4.037	0.032
0.700	4.016	0.028
0.710	4.002	0.026
0.720	3.985	0.022
0.730	3.968	0.022
0.740	3.953	0.021
0.750	3.944	0.020
0.760	3.934	0.019
0.770	3.922	0.016
0.780	3.909	0.015
0.790	3.900	0.016
0.800	3.890	0.014
0.810	3.887	0.015
0.820	3.869	0.017
0.830	3.865	0.016
0.840	3.844	0.013
