Material: semiconductor alloys / Si-Ge / Jellison-47
Optical constants. G. E. Jellison Jr., T. E. Haynes, H. H. Burke. Optical functions of silicon-germanium alloys determined using spectroscopic ellipsometry, Opt. Mat. 2, 105-117 (1993)
Comments: SixGe1-x, x = 0.47. 7-μm film grown on Si substrate.
Specs: {"n_is_absolute": true, "λ_is_vacuum": false, "x": 0.47, "thickness": "7 μm", "substrate": "Si"}
wavelength (um)	n	k
0.240	1.638	3.233
0.242	1.637	3.251
0.244	1.640	3.260
0.246	1.658	3.348
0.248	1.676	3.405
0.250	1.687	3.457
0.252	1.717	3.510
0.254	1.768	3.585
0.256	1.783	3.646
0.258	1.826	3.719
0.260	1.870	3.781
0.262	1.905	3.865
0.264	1.954	3.943
0.266	2.019	4.021
0.268	2.088	4.111
0.270	2.155	4.198
0.272	2.248	4.298
0.274	2.356	4.391
0.276	2.478	4.481
0.278	2.608	4.570
0.280	2.782	4.657
0.282	2.975	4.730
0.284	3.187	4.755
0.286	3.426	4.751
0.288	3.673	4.689
0.290	3.880	4.585
0.292	4.044	4.453
0.294	4.171	4.310
0.296	4.280	4.159
0.298	4.333	4.021
0.300	4.384	3.897
0.304	4.448	3.670
0.308	4.465	3.503
0.312	4.477	3.364
0.316	4.490	3.251
0.320	4.503	3.154
0.324	4.522	3.069
0.328	4.535	2.996
0.332	4.551	2.930
0.336	4.570	2.875
0.340	4.582	2.830
0.344	4.606	2.782
0.348	4.623	2.744
0.352	4.653	2.705
0.356	4.686	2.669
0.360	4.717	2.638
0.364	4.755	2.609
0.368	4.800	2.574
0.372	4.847	2.532
0.376	4.896	2.484
0.380	4.939	2.441
0.384	4.984	2.388
0.388	5.022	2.336
0.392	5.056	2.283
0.396	5.088	2.234
0.400	5.123	2.195
0.404	5.161	2.160
0.408	5.209	2.124
0.412	5.266	2.085
0.416	5.329	2.039
0.420	5.400	1.982
0.430	5.570	1.773
0.440	5.689	1.497
0.450	5.707	1.168
0.460	5.620	0.870
0.470	5.471	0.648
0.480	5.314	0.498
0.490	5.171	0.397
0.500	5.051	0.322
0.510	4.951	0.266
0.520	4.856	0.227
0.530	4.777	0.197
0.540	4.702	0.173
0.550	4.643	0.153
0.560	4.585	0.137
0.570	4.536	0.122
0.580	4.484	0.105
0.590	4.441	0.095
0.600	4.401	0.084
0.610	4.361	0.079
0.620	4.329	0.072
0.630	4.289	0.067
0.640	4.263	0.065
0.650	4.243	0.062
0.660	4.217	0.056
0.670	4.197	0.047
0.680	4.170	0.046
0.690	4.144	0.044
0.700	4.128	0.044
0.710	4.113	0.041
0.720	4.093	0.040
0.730	4.081	0.038
0.740	4.064	0.034
0.750	4.050	0.032
0.760	4.038	0.029
0.770	4.029	0.027
0.780	4.011	0.025
0.790	4.002	0.022
0.800	3.991	0.019
0.810	3.974	0.024
0.820	3.970	0.023
0.830	3.945	0.017
0.840	3.935	0.030
