Material: semiconductor alloys / Si-Ge / Jellison-48
Optical constants. G. E. Jellison Jr., T. E. Haynes, H. H. Burke. Optical functions of silicon-germanium alloys determined using spectroscopic ellipsometry, Opt. Mat. 2, 105-117 (1993)
Comments: SixGe1-x, x = 0.28. 4-μm film grown on Ge substrate.
Specs: {"n_is_absolute": true, "λ_is_vacuum": false, "x": 0.48, "thickness": "4 μm", "substrate": "Ge"}
wavelength (um)	n	k
0.240	1.754	3.266
0.242	1.724	3.318
0.244	1.704	3.343
0.246	1.712	3.382
0.248	1.728	3.447
0.250	1.752	3.505
0.252	1.790	3.564
0.254	1.827	3.637
0.256	1.861	3.710
0.258	1.910	3.766
0.260	1.953	3.850
0.262	2.007	3.912
0.264	2.070	3.989
0.266	2.132	4.078
0.268	2.212	4.168
0.270	2.297	4.258
0.272	2.399	4.343
0.274	2.510	4.427
0.276	2.647	4.522
0.278	2.806	4.596
0.280	2.990	4.675
0.282	3.206	4.719
0.284	3.436	4.721
0.286	3.680	4.679
0.288	3.896	4.584
0.290	4.097	4.452
0.292	4.237	4.304
0.294	4.357	4.140
0.296	4.425	3.990
0.298	4.484	3.845
0.300	4.508	3.721
0.304	4.540	3.502
0.308	4.553	3.327
0.312	4.554	3.191
0.316	4.556	3.080
0.320	4.561	2.985
0.324	4.568	2.907
0.328	4.575	2.833
0.332	4.582	2.767
0.336	4.591	2.712
0.340	4.602	2.661
0.344	4.620	2.613
0.348	4.635	2.571
0.352	4.654	2.532
0.356	4.683	2.494
0.360	4.712	2.457
0.364	4.746	2.417
0.368	4.787	2.375
0.372	4.826	2.329
0.376	4.859	2.272
0.380	4.886	2.210
0.384	4.905	2.155
0.388	4.922	2.102
0.392	4.939	2.046
0.396	4.951	1.997
0.400	4.959	1.961
0.404	4.974	1.928
0.408	4.995	1.900
0.412	5.021	1.875
0.416	5.055	1.849
0.420	5.097	1.821
0.430	5.225	1.719
0.440	5.355	1.562
0.450	5.466	1.345
0.460	5.517	1.064
0.470	5.448	0.779
0.480	5.311	0.575
0.490	5.162	0.436
0.500	5.040	0.345
0.510	4.936	0.280
0.520	4.836	0.226
0.530	4.748	0.191
0.540	4.673	0.171
0.550	4.611	0.151
0.560	4.560	0.126
0.570	4.502	0.098
0.580	4.443	0.087
0.590	4.392	0.083
0.600	4.346	0.080
0.610	4.312	0.081
0.620	4.288	0.078
0.630	4.254	0.071
0.640	4.228	0.061
0.650	4.206	0.057
0.660	4.183	0.053
0.670	4.161	0.045
0.680	4.144	0.033
0.690	4.116	0.023
0.700	4.085	0.024
0.710	4.068	0.028
0.720	4.050	0.028
0.730	4.036	0.028
0.740	4.021	0.023
0.750	4.004	0.020
0.760	3.985	0.019
0.770	3.971	0.020
0.780	3.957	0.027
0.790	3.952	0.032
0.800	3.955	0.027
0.810	3.950	0.021
0.820	3.950	0.016
0.830	3.923	0.016
0.840	3.883	0.025
