Material: immersion oils / Sigma Aldrich M5904 / Wang
Optical constants. K. Wang, W. Wen, Y. Wang, K. Wang, J. He, J. Wang, P. Zhai, Y. Yang, P. Qiu. Order-of-magnitude multiphoton signal enhancement based on characterization of absorption spectra of immersion oils at the 1700-nm window, Opt. Express 25, 5909-5916 (2017)
Comments: 22 °C.
Specs: {"temperature": "22 °C"}
wavelength (um)	k
1.200	1.53564E-05
1.202	1.49443E-05
1.204	1.53581E-05
1.206	1.56386E-05
1.208	1.68777E-05
1.210	1.72183E-05
1.212	1.73464E-05
1.214	1.70328E-05
1.216	1.70823E-05
1.218	1.56797E-05
1.220	1.51753E-05
1.222	1.40663E-05
1.224	1.29248E-05
1.226	1.16282E-05
1.228	1.12650E-05
1.230	9.89638E-06
1.232	8.84169E-06
1.234	8.09500E-06
1.236	7.35323E-06
1.238	6.92160E-06
1.240	6.96199E-06
1.242	6.59389E-06
1.244	6.26842E-06
1.246	5.80286E-06
1.248	5.68754E-06
1.250	5.82149E-06
1.252	5.72789E-06
1.254	4.63236E-06
1.256	4.64714E-06
1.258	4.41068E-06
1.260	4.13654E-06
1.262	3.83178E-06
1.264	3.40735E-06
1.266	3.20450E-06
1.268	3.07556E-06
1.270	3.28921E-06
1.272	2.46517E-06
1.274	2.18478E-06
1.276	2.62280E-06
1.278	2.51433E-06
1.280	2.81152E-06
1.282	2.65778E-06
1.284	2.78250E-06
1.286	2.43193E-06
1.288	2.49618E-06
1.290	2.53794E-06
1.292	2.52676E-06
1.294	3.00939E-06
1.296	2.58780E-06
1.298	2.63755E-06
1.300	2.28274E-06
1.302	1.79691E-06
1.304	2.84120E-06
1.306	2.32404E-06
1.308	2.12786E-06
1.310	2.16958E-06
1.312	2.23449E-06
1.314	2.31506E-06
1.316	2.51955E-06
1.318	1.61006E-06
1.320	1.75977E-06
1.322	1.80126E-06
1.324	2.09162E-06
1.326	2.45302E-06
1.328	1.78597E-06
1.330	2.04648E-06
1.332	2.00260E-06
1.334	1.72355E-06
1.336	1.67904E-06
1.338	2.37311E-06
1.340	1.87302E-06
1.342	2.11226E-06
1.344	2.50214E-06
1.346	1.69953E-06
1.348	2.33538E-06
1.350	2.39439E-06
1.352	2.70758E-06
1.354	3.10917E-06
1.356	3.65535E-06
1.358	4.13126E-06
1.360	4.96798E-06
1.362	5.16723E-06
1.364	5.43120E-06
1.366	5.75201E-06
1.368	5.70426E-06
1.370	6.91946E-06
1.372	7.56608E-06
1.374	8.14196E-06
1.376	9.24475E-06
1.378	1.02051E-05
1.380	1.10546E-05
1.382	1.15496E-05
1.384	1.23709E-05
1.386	1.37562E-05
1.388	1.49662E-05
1.390	1.55592E-05
1.392	1.56062E-05
1.394	1.56859E-05
1.396	1.51181E-05
1.398	1.33746E-05
1.400	1.27195E-05
1.402	1.22189E-05
1.404	1.17828E-05
1.406	1.13620E-05
1.408	1.17833E-05
1.410	1.28435E-05
1.412	1.33592E-05
1.414	1.34363E-05
1.416	1.35135E-05
1.418	1.26914E-05
1.420	1.21173E-05
1.422	1.16751E-05
1.424	1.11395E-05
1.426	1.09877E-05
1.428	1.05670E-05
1.430	1.09681E-05
1.432	1.14965E-05
1.434	1.10493E-05
1.436	1.09635E-05
1.438	1.05227E-05
1.440	1.02667E-05
1.442	1.04758E-05
1.444	1.00239E-05
1.446	8.97619E-06
1.448	9.15868E-06
1.450	8.53266E-06
1.452	8.29716E-06
1.454	8.44524E-06
1.456	7.51627E-06
1.458	7.17550E-06
1.460	6.89384E-06
1.462	6.48259E-06
1.464	6.56019E-06
1.466	6.78440E-06
1.468	6.58676E-06
1.470	6.79425E-06
1.472	6.93317E-06
1.474	6.23282E-06
1.476	5.92920E-06
1.478	5.66813E-06
1.480	5.66708E-06
1.482	5.30054E-06
1.484	5.02001E-06
1.486	5.15768E-06
1.488	5.71524E-06
1.490	5.55668E-06
1.492	5.04708E-06
1.494	5.28199E-06
1.496	5.41204E-06
1.498	5.13782E-06
1.500	4.80986E-06
1.502	4.63101E-06
1.504	4.32803E-06
1.506	4.35152E-06
1.508	4.44586E-06
1.510	4.38087E-06
1.512	4.50206E-06
1.514	4.29464E-06
1.516	4.31805E-06
1.518	4.19002E-06
1.520	3.96354E-06
1.522	3.97760E-06
1.524	3.87550E-06
1.526	3.86261E-06
1.528	3.96641E-06
1.530	4.03455E-06
1.532	3.95875E-06
1.534	3.65764E-06
1.536	3.52710E-06
1.538	3.48653E-06
1.540	3.63579E-06
1.542	3.82163E-06
1.544	3.50013E-06
1.546	3.10520E-06
1.548	3.39106E-06
1.550	3.40457E-06
1.552	3.22655E-06
1.554	3.05733E-06
1.556	2.77796E-06
1.558	2.96453E-06
1.560	3.16994E-06
1.562	2.83454E-06
1.564	2.70039E-06
1.566	2.88778E-06
1.568	3.36113E-06
1.570	3.17177E-06
1.572	3.14816E-06
1.574	3.14290E-06
1.576	2.89707E-06
1.578	3.16947E-06
1.580	2.94151E-06
1.582	2.61074E-06
1.584	2.80009E-06
1.586	2.72916E-06
1.588	2.99368E-06
1.590	3.40829E-06
1.592	3.36583E-06
1.594	2.97696E-06
1.596	2.77444E-06
1.598	3.71639E-06
1.600	3.72104E-06
1.602	3.32119E-06
1.604	3.32534E-06
1.606	3.75391E-06
1.608	3.92852E-06
1.610	3.51740E-06
1.612	3.64479E-06
1.614	3.72522E-06
1.616	4.12836E-06
1.618	4.27600E-06
1.620	4.44307E-06
1.622	4.45811E-06
1.624	4.61623E-06
1.626	4.77460E-06
1.628	5.64096E-06
1.630	5.85854E-06
1.632	5.56858E-06
1.634	5.22043E-06
1.636	5.54383E-06
1.638	6.22398E-06
1.640	6.26055E-06
1.642	6.02711E-06
1.644	5.65780E-06
1.646	5.73241E-06
1.648	5.87484E-06
1.650	6.06606E-06
1.652	6.37420E-06
1.654	6.14881E-06
1.656	6.08812E-06
1.658	6.86481E-06
1.660	6.85354E-06
1.662	6.94962E-06
1.664	7.09477E-06
1.666	6.89793E-06
1.668	7.77802E-06
1.670	8.33660E-06
1.672	8.96515E-06
1.674	9.16264E-06
1.676	1.03646E-05
1.678	1.18749E-05
1.680	1.33986E-05
1.682	1.49259E-05
1.684	1.85239E-05
1.686	2.29719E-05
1.688	3.00872E-05
1.690	3.85395E-05
1.692	4.78959E-05
1.694	5.42699E-05
1.696	5.91748E-05
1.698	6.26451E-05
1.700	6.86294E-05
1.702	7.63267E-05
1.704	8.52230E-05
1.706	9.10038E-05
1.708	9.37387E-05
1.710	9.64093E-05
1.712	1.00252E-04
1.714	1.05473E-04
1.716	1.13215E-04
1.718	1.20722E-04
1.720	1.30257E-04
1.722	1.37922E-04
1.724	1.44654E-04
1.726	1.46595E-04
1.728	1.46359E-04
1.730	1.43907E-04
1.732	1.37960E-04
1.734	1.28160E-04
1.736	1.19183E-04
1.738	1.07715E-04
1.740	9.77736E-05
1.742	9.17578E-05
1.744	8.47346E-05
1.746	8.44010E-05
1.748	8.46826E-05
1.750	8.57251E-05
1.752	8.80763E-05
1.754	8.95983E-05
1.756	9.31656E-05
1.758	9.60491E-05
1.760	9.84427E-05
1.762	9.94237E-05
1.764	9.74336E-05
1.766	9.52831E-05
1.768	9.04590E-05
1.770	8.53222E-05
1.772	8.01528E-05
1.774	7.46797E-05
1.776	6.97158E-05
1.778	6.58367E-05
1.780	6.17711E-05
1.782	5.96323E-05
1.784	5.65561E-05
1.786	5.43853E-05
1.788	5.34381E-05
1.790	5.32771E-05
1.792	5.30314E-05
1.794	5.27851E-05
1.796	5.40359E-05
1.798	5.40433E-05
1.800	5.44628E-05
1.802	5.36555E-05
1.804	5.43719E-05
1.806	5.44428E-05
1.808	5.52569E-05
1.810	5.48397E-05
1.812	5.52727E-05
1.814	5.57812E-05
1.816	5.57147E-05
1.818	5.68225E-05
1.820	5.56451E-05
1.822	5.52033E-05
1.824	5.59281E-05
1.826	5.57964E-05
1.828	5.55355E-05
1.830	5.49620E-05
1.832	5.51943E-05
1.834	5.51899E-05
1.836	5.40209E-05
1.838	5.30974E-05
1.840	5.12209E-05
1.842	5.04436E-05
1.844	4.86791E-05
1.846	4.73550E-05
1.848	4.56372E-05
1.850	4.36984E-05
1.852	4.45613E-05
1.854	4.17893E-05
1.856	4.08317E-05
1.858	3.99591E-05
1.860	3.77081E-05
1.862	3.81313E-05
1.864	3.73623E-05
1.866	3.67776E-05
1.868	3.62905E-05
1.870	3.58901E-05
1.872	3.58186E-05
1.874	3.59339E-05
1.876	3.55316E-05
1.878	3.46320E-05
1.880	3.59827E-05
1.882	3.44073E-05
1.884	3.51408E-05
1.886	3.48792E-05
1.888	3.53818E-05
1.890	3.44980E-05
1.892	3.44455E-05
1.894	3.57167E-05
1.896	3.54315E-05
1.898	3.57030E-05
1.900	3.61757E-05
