Material: human body / liver / Giannios
Optical constants. P. Giannios, K. G. Toutouzas, M. Matiatou, K. Stasinos, M. M. Konstadoulakis, G. C. Zografos, and K. Moutzouris. Visible to near-infrared refractive properties of freshly-excised human-liver tissues: marking hepatic malignancies, Sci. Rep. 6, 27910 (2016)
Comments: 24 °C ± 2 °C.
Dispersion formula 5, range 0.45 1.551 um, coefficients 1.35910 0.00827 -2 -0.000576 -4
wavelength (um)	k
0.450	0.0037661
0.453	0.0037593
0.456	0.0037526
0.459	0.0037460
0.462	0.0037394
0.465	0.0037329
0.468	0.0037264
0.471	0.0037200
0.474	0.0037136
0.477	0.0037073
0.480	0.0037010
0.483	0.0036948
0.486	0.0036886
0.489	0.0036825
0.492	0.0036764
0.495	0.0036704
0.498	0.0036644
0.501	0.0036585
0.504	0.0036526
0.507	0.0036467
0.510	0.0036409
0.513	0.0036352
0.516	0.0036294
0.519	0.0036238
0.522	0.0036181
0.525	0.0036125
0.528	0.0036070
0.531	0.0036015
0.534	0.0035960
0.537	0.0035906
0.540	0.0035852
0.543	0.0035798
0.546	0.0035745
0.549	0.0035692
0.552	0.0035640
0.555	0.0035587
0.558	0.0035536
0.561	0.0035484
0.564	0.0035433
0.567	0.0035383
0.570	0.0035332
0.573	0.0035282
0.576	0.0035232
0.579	0.0035183
0.582	0.0035134
0.585	0.0035085
0.588	0.0035037
0.591	0.0034989
0.594	0.0034941
0.597	0.0034893
0.600	0.0034846
0.603	0.0034799
0.606	0.0034753
0.609	0.0034706
0.612	0.0034660
0.615	0.0034615
0.618	0.0034569
0.621	0.0034524
0.624	0.0034479
0.627	0.0034435
0.630	0.0034390
0.633	0.0034346
0.636	0.0034302
0.639	0.0034259
0.642	0.0034215
0.645	0.0034172
0.648	0.0034130
0.651	0.0034087
0.654	0.0034045
0.657	0.0034003
0.660	0.0033961
0.663	0.0033919
0.666	0.0033878
0.669	0.0033837
0.672	0.0033796
0.675	0.0033755
0.678	0.0033715
0.681	0.0033675
0.684	0.0033635
0.687	0.0033595
0.690	0.0033556
0.693	0.0033516
0.696	0.0033477
0.699	0.0033439
0.702	0.0033400
0.705	0.0033361
0.708	0.0033323
0.711	0.0033285
0.714	0.0033247
0.717	0.0033210
0.720	0.0033172
0.723	0.0033135
0.726	0.0033098
0.729	0.0033061
0.732	0.0033025
0.735	0.0032988
0.738	0.0032952
0.741	0.0032916
0.744	0.0032880
0.747	0.0032844
0.750	0.0032809
0.753	0.0032773
0.756	0.0032738
0.759	0.0032703
0.762	0.0032668
0.765	0.0032634
0.768	0.0032599
0.771	0.0032565
0.774	0.0032531
0.777	0.0032497
0.780	0.0032463
0.783	0.0032430
0.786	0.0032396
0.789	0.0032363
0.792	0.0032330
0.795	0.0032297
0.798	0.0032264
0.801	0.0032231
0.804	0.0032199
0.807	0.0032166
0.810	0.0032134
0.813	0.0032102
0.816	0.0032070
0.819	0.0032038
0.822	0.0032007
0.825	0.0031975
0.828	0.0031944
0.831	0.0031913
0.834	0.0031882
0.837	0.0031851
0.840	0.0031820
0.843	0.0031789
0.846	0.0031759
0.849	0.0031729
0.852	0.0031698
0.855	0.0031668
0.858	0.0031638
0.861	0.0031609
0.864	0.0031579
0.867	0.0031549
0.870	0.0031520
0.873	0.0031491
0.876	0.0031462
0.879	0.0031433
0.882	0.0031404
0.885	0.0031375
0.888	0.0031346
0.891	0.0031318
0.894	0.0031289
0.897	0.0031261
0.900	0.0031233
0.903	0.0031205
0.906	0.0031177
0.909	0.0031149
0.912	0.0031121
0.915	0.0031094
0.918	0.0031066
0.921	0.0031039
0.924	0.0031012
0.927	0.0030985
0.930	0.0030957
0.933	0.0030931
0.936	0.0030904
0.939	0.0030877
0.942	0.0030851
0.945	0.0030824
0.948	0.0030798
0.951	0.0030771
0.954	0.0030745
0.957	0.0030719
0.960	0.0030693
0.963	0.0030667
0.966	0.0030642
0.969	0.0030616
0.972	0.0030590
0.975	0.0030565
0.978	0.0030540
0.981	0.0030514
0.984	0.0030489
0.987	0.0030464
0.990	0.0030439
0.993	0.0030414
0.996	0.0030390
0.999	0.0030365
1.002	0.0030340
1.005	0.0030316
1.008	0.0030292
1.011	0.0030267
1.014	0.0030243
1.017	0.0030219
1.020	0.0030195
1.023	0.0030171
1.026	0.0030147
1.029	0.0030123
1.032	0.0030100
1.035	0.0030076
1.038	0.0030053
1.041	0.0030029
1.044	0.0030006
1.047	0.0029983
1.050	0.0029960
1.053	0.0029936
1.056	0.0029913
1.059	0.0029891
1.062	0.0029868
1.065	0.0029845
1.068	0.0029822
1.071	0.0029800
1.074	0.0029777
1.077	0.0029755
1.080	0.0029733
1.083	0.0029710
1.086	0.0029688
1.089	0.0029666
1.092	0.0029644
1.095	0.0029622
1.098	0.0029600
1.101	0.0029578
1.104	0.0029557
1.107	0.0029535
1.110	0.0029513
1.113	0.0029492
1.116	0.0029470
1.119	0.0029449
1.122	0.0029428
1.125	0.0029407
1.128	0.0029385
1.131	0.0029364
1.134	0.0029343
1.137	0.0029322
1.140	0.0029302
1.143	0.0029281
1.146	0.0029260
1.149	0.0029239
1.152	0.0029219
1.155	0.0029198
1.158	0.0029178
1.161	0.0029158
1.164	0.0029137
1.167	0.0029117
1.170	0.0029097
1.173	0.0029077
1.176	0.0029057
1.179	0.0029037
1.182	0.0029017
1.185	0.0028997
1.188	0.0028977
1.191	0.0028957
1.194	0.0028938
1.197	0.0028918
1.200	0.0028899
1.203	0.0028879
1.206	0.0028860
1.209	0.0028840
1.212	0.0028821
1.215	0.0028802
1.218	0.0028783
1.221	0.0028764
1.224	0.0028745
1.227	0.0028726
1.230	0.0028707
1.233	0.0028688
1.236	0.0028669
1.239	0.0028650
1.242	0.0028631
1.245	0.0028613
1.248	0.0028594
1.251	0.0028576
1.254	0.0028557
1.257	0.0028539
1.260	0.0028520
1.263	0.0028502
1.266	0.0028484
1.269	0.0028466
1.272	0.0028448
1.275	0.0028429
1.278	0.0028411
1.281	0.0028393
1.284	0.0028375
1.287	0.0028358
1.290	0.0028340
1.293	0.0028322
1.296	0.0028304
1.299	0.0028287
1.302	0.0028269
1.305	0.0028251
1.308	0.0028234
1.311	0.0028217
1.314	0.0028199
1.317	0.0028182
1.320	0.0028164
1.323	0.0028147
1.326	0.0028130
1.329	0.0028113
1.332	0.0028096
1.335	0.0028079
1.338	0.0028062
1.341	0.0028045
1.344	0.0028028
1.347	0.0028011
1.350	0.0027994
1.353	0.0027977
1.356	0.0027961
1.359	0.0027944
1.362	0.0027927
1.365	0.0027911
1.368	0.0027894
1.371	0.0027878
1.374	0.0027861
1.377	0.0027845
1.380	0.0027828
1.383	0.0027812
1.386	0.0027796
1.389	0.0027780
1.392	0.0027763
1.395	0.0027747
1.398	0.0027731
1.401	0.0027715
1.404	0.0027699
1.407	0.0027683
1.410	0.0027667
1.413	0.0027651
1.416	0.0027636
1.419	0.0027620
1.422	0.0027604
1.425	0.0027588
1.428	0.0027573
1.431	0.0027557
1.434	0.0027542
1.437	0.0027526
1.440	0.0027510
1.443	0.0027495
1.446	0.0027480
1.449	0.0027464
1.452	0.0027449
1.455	0.0027434
1.458	0.0027418
1.461	0.0027403
1.464	0.0027388
1.467	0.0027373
1.470	0.0027358
1.473	0.0027343
1.476	0.0027328
1.479	0.0027313
1.482	0.0027298
1.485	0.0027283
1.488	0.0027268
1.491	0.0027253
1.494	0.0027238
1.497	0.0027224
1.500	0.0027209
1.503	0.0027194
1.506	0.0027180
1.509	0.0027165
1.512	0.0027150
1.515	0.0027136
1.518	0.0027121
1.521	0.0027107
1.524	0.0027093
1.527	0.0027078
1.530	0.0027064
1.533	0.0027050
1.536	0.0027035
1.539	0.0027021
1.542	0.0027007
1.545	0.0026993
1.548	0.0026979
1.551	0.0026964
