Material: alloys / Ni-Fe / Tikuisis_bare150nm
Optical constants. K. K. Tikuišis, L. Beran, P. Cejpek, K. Uhlířová, J. Hamrle, M. Vaňatka, M. Urbánek, M. Veis. Optical and magneto-optical properties of permalloy thin films in 0.7-6.4 eV photon energy range, Mater. Des. 114, 31-39 (2017) (Numerical data kindly provided by Kristupas Kazimieras Tikuišis)
Comments: 150 nm thick bare Permalloy (80% nickel, 20% iron) film with 2.3 nm oxide layer on top. Room temperature. Obtained by multi-angle spectroscopic ellipsometry.
wavelength (um)	n	k
0.1930	0.8973	1.5451
0.1960	0.9151	1.5935
0.1990	0.9343	1.6398
0.2020	0.9549	1.6843
0.2050	0.9765	1.7268
0.2080	0.9992	1.7673
0.2110	1.0227	1.8060
0.2140	1.0471	1.8428
0.2170	1.0721	1.8777
0.2200	1.0976	1.9107
0.2230	1.1235	1.9418
0.2260	1.1497	1.9711
0.2290	1.1760	1.9985
0.2320	1.2023	2.0241
0.2350	1.2284	2.0479
0.2380	1.2542	2.0701
0.2410	1.2797	2.0905
0.2440	1.3045	2.1094
0.2470	1.3287	2.1268
0.2500	1.3521	2.1429
0.2530	1.3746	2.1577
0.2560	1.3962	2.1713
0.2590	1.4167	2.1840
0.2620	1.4362	2.1958
0.2650	1.4546	2.2069
0.2680	1.4719	2.2174
0.2710	1.4880	2.2274
0.2740	1.5031	2.2371
0.2770	1.5171	2.2465
0.2800	1.5301	2.2559
0.2830	1.5421	2.2652
0.2860	1.5531	2.2745
0.2890	1.5633	2.2841
0.2920	1.5727	2.2938
0.2950	1.5813	2.3037
0.2980	1.5893	2.3140
0.3010	1.5966	2.3246
0.3040	1.6035	2.3356
0.3070	1.6098	2.3470
0.3100	1.6158	2.3588
0.3130	1.6214	2.3710
0.3160	1.6267	2.3836
0.3190	1.6318	2.3966
0.3220	1.6367	2.4100
0.3250	1.6414	2.4238
0.3280	1.6461	2.4379
0.3310	1.6506	2.4524
0.3340	1.6551	2.4673
0.3370	1.6596	2.4824
0.3400	1.6642	2.4979
0.3430	1.6687	2.5136
0.3460	1.6733	2.5296
0.3490	1.6780	2.5458
0.3520	1.6828	2.5623
0.3550	1.6876	2.5789
0.3580	1.6926	2.5958
0.3610	1.6977	2.6128
0.3640	1.7029	2.6299
0.3670	1.7082	2.6472
0.3700	1.7136	2.6646
0.3730	1.7192	2.6821
0.3760	1.7250	2.6996
0.3790	1.7308	2.7173
0.3820	1.7368	2.7350
0.3850	1.7429	2.7527
0.3880	1.7492	2.7705
0.3910	1.7556	2.7883
0.3940	1.7621	2.8062
0.3970	1.7687	2.8240
0.4000	1.7755	2.8419
0.4030	1.7824	2.8597
0.4060	1.7894	2.8775
0.4090	1.7965	2.8954
0.4120	1.8037	2.9131
0.4150	1.8110	2.9309
0.4180	1.8185	2.9486
0.4210	1.8260	2.9663
0.4240	1.8336	2.9839
0.4270	1.8414	3.0015
0.4300	1.8492	3.0191
0.4330	1.8571	3.0366
0.4360	1.8651	3.0540
0.4390	1.8731	3.0713
0.4420	1.8813	3.0887
0.4450	1.8895	3.1059
0.4480	1.8978	3.1231
0.4510	1.9061	3.1402
0.4540	1.9145	3.1572
0.4570	1.9230	3.1742
0.4600	1.9315	3.1911
0.4630	1.9401	3.2079
0.4660	1.9487	3.2247
0.4690	1.9574	3.2413
0.4720	1.9661	3.2580
0.4750	1.9749	3.2745
0.4780	1.9837	3.2909
0.4810	1.9925	3.3073
0.4840	2.0014	3.3236
0.4870	2.0103	3.3398
0.4900	2.0193	3.3560
0.4930	2.0283	3.3721
0.4960	2.0373	3.3881
0.4990	2.0463	3.4040
0.5020	2.0554	3.4198
0.5050	2.0645	3.4356
0.5080	2.0736	3.4513
0.5110	2.0827	3.4669
0.5140	2.0919	3.4825
0.5170	2.1010	3.4979
0.5200	2.1102	3.5133
0.5230	2.1194	3.5287
0.5260	2.1286	3.5439
0.5290	2.1378	3.5591
0.5320	2.1470	3.5742
0.5350	2.1562	3.5893
0.5380	2.1655	3.6042
0.5410	2.1747	3.6191
0.5440	2.1840	3.6339
0.5470	2.1932	3.6487
0.5500	2.2025	3.6634
0.5530	2.2117	3.6780
0.5560	2.2210	3.6926
0.5590	2.2302	3.7071
0.5620	2.2395	3.7215
0.5650	2.2488	3.7358
0.5680	2.2580	3.7501
0.5710	2.2673	3.7643
0.5740	2.2765	3.7785
0.5770	2.2857	3.7926
0.5800	2.2950	3.8066
0.5830	2.3042	3.8206
0.5860	2.3134	3.8345
0.5890	2.3226	3.8484
0.5920	2.3318	3.8622
0.5950	2.3410	3.8759
0.5980	2.3502	3.8896
0.6010	2.3594	3.9032
0.6040	2.3686	3.9168
0.6070	2.3777	3.9303
0.6100	2.3869	3.9437
0.6130	2.3960	3.9571
0.6160	2.4051	3.9705
0.6190	2.4142	3.9837
0.6220	2.4233	3.9970
0.6250	2.4324	4.0101
0.6280	2.4415	4.0233
0.6310	2.4506	4.0363
0.6340	2.4596	4.0493
0.6370	2.4686	4.0623
0.6400	2.4776	4.0752
0.6430	2.4866	4.0881
0.6460	2.4956	4.1009
0.6490	2.5046	4.1137
0.6520	2.5135	4.1264
0.6550	2.5225	4.1391
0.6580	2.5314	4.1517
0.6610	2.5403	4.1643
0.6640	2.5492	4.1768
0.6670	2.5580	4.1893
0.6700	2.5669	4.2017
0.6730	2.5757	4.2141
0.6760	2.5845	4.2264
0.6790	2.5933	4.2387
0.6820	2.6021	4.2510
0.6850	2.6109	4.2632
0.6880	2.6196	4.2754
0.6910	2.6283	4.2875
0.6940	2.6371	4.2996
0.6970	2.6457	4.3117
0.7000	2.6544	4.3237
0.7030	2.6631	4.3357
0.7060	2.6717	4.3476
0.7090	2.6803	4.3595
0.7120	2.6889	4.3713
0.7150	2.6975	4.3831
0.7180	2.7060	4.3949
0.7210	2.7146	4.4067
0.7240	2.7231	4.4184
0.7270	2.7316	4.4300
0.7300	2.7400	4.4416
0.7330	2.7485	4.4532
0.7360	2.7569	4.4648
0.7390	2.7653	4.4763
0.7420	2.7737	4.4878
0.7450	2.7821	4.4992
0.7480	2.7905	4.5107
0.7510	2.7988	4.5220
0.7540	2.8071	4.5334
0.7570	2.8154	4.5447
0.7600	2.8237	4.5560
0.7630	2.8320	4.5672
0.7660	2.8402	4.5784
0.7690	2.8484	4.5896
0.7720	2.8566	4.6008
0.7750	2.8648	4.6119
0.7780	2.8729	4.6230
0.7810	2.8811	4.6340
0.7840	2.8892	4.6451
0.7870	2.8973	4.6561
0.7900	2.9054	4.6670
0.7930	2.9134	4.6780
0.7960	2.9215	4.6889
0.7990	2.9295	4.6998
0.8020	2.9375	4.7106
0.8050	2.9454	4.7215
0.8080	2.9534	4.7323
0.8110	2.9613	4.7430
0.8140	2.9693	4.7538
0.8170	2.9772	4.7645
0.8200	2.9850	4.7752
0.8230	2.9929	4.7858
0.8260	3.0007	4.7965
0.8290	3.0085	4.8071
0.8320	3.0163	4.8177
0.8350	3.0241	4.8282
0.8380	3.0319	4.8388
0.8410	3.0396	4.8493
0.8440	3.0473	4.8598
0.8470	3.0550	4.8702
0.8500	3.0627	4.8807
0.8530	3.0704	4.8911
0.8560	3.0780	4.9014
0.8590	3.0856	4.9118
0.8620	3.0932	4.9222
0.8650	3.1008	4.9325
0.8680	3.1084	4.9428
0.8710	3.1159	4.9530
0.8740	3.1234	4.9633
0.8770	3.1309	4.9735
0.8800	3.1384	4.9837
0.8830	3.1459	4.9939
0.8860	3.1533	5.0041
0.8890	3.1607	5.0142
0.8920	3.1682	5.0243
0.8950	3.1755	5.0344
0.8980	3.1829	5.0445
0.9010	3.1903	5.0546
0.9040	3.1976	5.0646
0.9070	3.2049	5.0746
0.9100	3.2122	5.0846
0.9130	3.2195	5.0946
0.9160	3.2267	5.1045
0.9190	3.2340	5.1145
0.9220	3.2412	5.1244
0.9250	3.2484	5.1343
0.9280	3.2556	5.1442
0.9310	3.2627	5.1540
0.9340	3.2699	5.1639
0.9370	3.2770	5.1737
0.9400	3.2841	5.1835
0.9430	3.2912	5.1933
0.9460	3.2983	5.2030
0.9490	3.3054	5.2128
0.9520	3.3124	5.2225
0.9550	3.3194	5.2323
0.9580	3.3264	5.2419
0.9610	3.3334	5.2516
0.9640	3.3404	5.2613
0.9670	3.3473	5.2709
0.9700	3.3543	5.2806
0.9730	3.3612	5.2902
0.9760	3.3681	5.2998
0.9790	3.3749	5.3094
0.9820	3.3818	5.3189
0.9850	3.3887	5.3285
0.9880	3.3955	5.3380
0.9910	3.4023	5.3475
0.9940	3.4091	5.3570
0.9970	3.4159	5.3665
1.0000	3.4226	5.3760
1.0075	3.4394	5.3996
1.0150	3.4562	5.4231
1.0225	3.4728	5.4466
1.0300	3.4893	5.4699
1.0375	3.5057	5.4931
1.0450	3.5220	5.5163
1.0525	3.5382	5.5394
1.0600	3.5543	5.5624
1.0675	3.5703	5.5853
1.0750	3.5862	5.6082
1.0825	3.6021	5.6309
1.0900	3.6178	5.6536
1.0975	3.6334	5.6762
1.1050	3.6489	5.6988
1.1125	3.6644	5.7213
1.1200	3.6797	5.7437
1.1275	3.6949	5.7660
1.1350	3.7101	5.7883
1.1425	3.7252	5.8105
1.1500	3.7401	5.8326
1.1575	3.7550	5.8547
1.1650	3.7698	5.8767
1.1725	3.7845	5.8986
1.1800	3.7992	5.9205
1.1875	3.8137	5.9424
1.1950	3.8282	5.9641
1.2025	3.8425	5.9859
1.2100	3.8568	6.0075
1.2175	3.8710	6.0291
1.2250	3.8852	6.0507
1.2325	3.8992	6.0722
1.2400	3.9132	6.0936
1.2475	3.9271	6.1150
1.2550	3.9409	6.1364
1.2625	3.9546	6.1577
1.2700	3.9682	6.1790
1.2775	3.9818	6.2002
1.2850	3.9953	6.2213
1.2925	4.0087	6.2424
1.3000	4.0221	6.2635
1.3075	4.0353	6.2845
1.3150	4.0485	6.3055
1.3225	4.0617	6.3265
1.3300	4.0747	6.3474
1.3375	4.0877	6.3682
1.3450	4.1006	6.3890
1.3525	4.1134	6.4098
1.3600	4.1262	6.4306
1.3675	4.1389	6.4513
1.3750	4.1515	6.4719
1.3825	4.1641	6.4926
1.3900	4.1766	6.5132
1.3975	4.1890	6.5337
1.4050	4.2014	6.5542
1.4125	4.2137	6.5747
1.4200	4.2259	6.5952
1.4275	4.2381	6.6156
1.4350	4.2502	6.6360
1.4425	4.2622	6.6563
1.4500	4.2742	6.6766
1.4575	4.2861	6.6969
1.4650	4.2979	6.7172
1.4725	4.3097	6.7374
1.4800	4.3214	6.7576
1.4875	4.3331	6.7778
1.4950	4.3447	6.7979
1.5025	4.3563	6.8180
1.5100	4.3678	6.8381
1.5175	4.3792	6.8582
1.5250	4.3905	6.8782
1.5325	4.4019	6.8982
1.5400	4.4131	6.9182
1.5475	4.4243	6.9381
1.5550	4.4355	6.9580
1.5625	4.4465	6.9779
1.5700	4.4576	6.9978
1.5775	4.4685	7.0177
1.5850	4.4795	7.0375
1.5925	4.4903	7.0573
1.6000	4.5011	7.0770
1.6075	4.5119	7.0968
1.6150	4.5226	7.1165
1.6225	4.5333	7.1362
1.6300	4.5439	7.1559
1.6375	4.5544	7.1756
1.6450	4.5649	7.1952
1.6525	4.5754	7.2148
1.6600	4.5857	7.2344
1.6675	4.5961	7.2540
1.6750	4.6064	7.2736
1.6825	4.6166	7.2931
1.6900	4.6268	7.3126
