Material: alloys / Ni-Fe / Tikuisis_bare10nm
Optical constants. K. K. Tikuišis, L. Beran, P. Cejpek, K. Uhlířová, J. Hamrle, M. Vaňatka, M. Urbánek, M. Veis. Optical and magneto-optical properties of permalloy thin films in 0.7-6.4 eV photon energy range, Mater. Des. 114, 31-39 (2017) (Numerical data kindly provided by Kristupas Kazimieras Tikuišis))
Comments: 10 nm thick bare Permalloy (80% nickel, 20% iron) film with 4 nm oxide layer on top. Room temperature. Obtained by multi-angle spectroscopic ellipsometry.
wavelength (um)	n	k
0.1930	0.9009	1.9482
0.1960	0.9040	2.0216
0.1990	0.9129	2.0833
0.2020	0.9253	2.1375
0.2050	0.9403	2.1866
0.2080	0.9570	2.2318
0.2110	0.9752	2.2742
0.2140	0.9946	2.3141
0.2170	1.0149	2.3520
0.2200	1.0361	2.3882
0.2230	1.0581	2.4228
0.2260	1.0806	2.4558
0.2290	1.1038	2.4874
0.2320	1.1273	2.5176
0.2350	1.1512	2.5465
0.2380	1.1754	2.5739
0.2410	1.1997	2.6001
0.2440	1.2240	2.6249
0.2470	1.2482	2.6484
0.2500	1.2721	2.6707
0.2530	1.2957	2.6919
0.2560	1.3188	2.7119
0.2590	1.3413	2.7309
0.2620	1.3631	2.7491
0.2650	1.3842	2.7665
0.2680	1.4045	2.7833
0.2710	1.4240	2.7995
0.2740	1.4426	2.8154
0.2770	1.4605	2.8311
0.2800	1.4777	2.8465
0.2830	1.4941	2.8620
0.2860	1.5099	2.8774
0.2890	1.5251	2.8930
0.2920	1.5398	2.9087
0.2950	1.5540	2.9246
0.2980	1.5679	2.9406
0.3010	1.5814	2.9569
0.3040	1.5947	2.9734
0.3070	1.6078	2.9901
0.3100	1.6208	3.0070
0.3130	1.6336	3.0240
0.3160	1.6463	3.0413
0.3190	1.6590	3.0587
0.3220	1.6716	3.0762
0.3250	1.6843	3.0938
0.3280	1.6969	3.1116
0.3310	1.7096	3.1294
0.3340	1.7223	3.1472
0.3370	1.7350	3.1652
0.3400	1.7478	3.1831
0.3430	1.7606	3.2010
0.3460	1.7735	3.2190
0.3490	1.7864	3.2369
0.3520	1.7993	3.2548
0.3550	1.8123	3.2727
0.3580	1.8254	3.2905
0.3610	1.8385	3.3083
0.3640	1.8516	3.3260
0.3670	1.8648	3.3437
0.3700	1.8780	3.3613
0.3730	1.8912	3.3788
0.3760	1.9045	3.3962
0.3790	1.9178	3.4136
0.3820	1.9311	3.4309
0.3850	1.9444	3.4481
0.3880	1.9577	3.4652
0.3910	1.9711	3.4822
0.3940	1.9844	3.4991
0.3970	1.9978	3.5160
0.4000	2.0112	3.5327
0.4030	2.0246	3.5494
0.4060	2.0379	3.5659
0.4090	2.0513	3.5824
0.4120	2.0647	3.5987
0.4150	2.0780	3.6150
0.4180	2.0914	3.6312
0.4210	2.1047	3.6473
0.4240	2.1180	3.6633
0.4270	2.1313	3.6792
0.4300	2.1446	3.6950
0.4330	2.1579	3.7107
0.4360	2.1711	3.7263
0.4390	2.1844	3.7419
0.4420	2.1976	3.7573
0.4450	2.2108	3.7727
0.4480	2.2239	3.7880
0.4510	2.2371	3.8032
0.4540	2.2502	3.8183
0.4570	2.2632	3.8333
0.4600	2.2763	3.8482
0.4630	2.2893	3.8631
0.4660	2.3023	3.8779
0.4690	2.3153	3.8926
0.4720	2.3282	3.9072
0.4750	2.3411	3.9217
0.4780	2.3540	3.9362
0.4810	2.3668	3.9505
0.4840	2.3796	3.9649
0.4870	2.3924	3.9791
0.4900	2.4051	3.9933
0.4930	2.4178	4.0073
0.4960	2.4304	4.0214
0.4990	2.4431	4.0353
0.5020	2.4556	4.0492
0.5050	2.4682	4.0630
0.5080	2.4807	4.0767
0.5110	2.4932	4.0904
0.5140	2.5056	4.1040
0.5170	2.5180	4.1175
0.5200	2.5304	4.1310
0.5230	2.5427	4.1444
0.5260	2.5550	4.1578
0.5290	2.5673	4.1711
0.5320	2.5795	4.1843
0.5350	2.5917	4.1975
0.5380	2.6038	4.2106
0.5410	2.6159	4.2237
0.5440	2.6280	4.2366
0.5470	2.6400	4.2496
0.5500	2.6520	4.2625
0.5530	2.6639	4.2753
0.5560	2.6759	4.2881
0.5590	2.6877	4.3008
0.5620	2.6996	4.3135
0.5650	2.7114	4.3261
0.5680	2.7231	4.3386
0.5710	2.7349	4.3511
0.5740	2.7465	4.3636
0.5770	2.7582	4.3760
0.5800	2.7698	4.3884
0.5830	2.7814	4.4007
0.5860	2.7929	4.4130
0.5890	2.8044	4.4252
0.5920	2.8159	4.4374
0.5950	2.8273	4.4495
0.5980	2.8387	4.4616
0.6010	2.8500	4.4736
0.6040	2.8614	4.4856
0.6070	2.8726	4.4975
0.6100	2.8839	4.5094
0.6130	2.8951	4.5213
0.6160	2.9062	4.5331
0.6190	2.9174	4.5449
0.6220	2.9285	4.5566
0.6250	2.9395	4.5683
0.6280	2.9506	4.5800
0.6310	2.9616	4.5916
0.6340	2.9725	4.6032
0.6370	2.9834	4.6147
0.6400	2.9943	4.6262
0.6430	3.0052	4.6377
0.6460	3.0160	4.6491
0.6490	3.0268	4.6605
0.6520	3.0375	4.6719
0.6550	3.0482	4.6832
0.6580	3.0589	4.6945
0.6610	3.0695	4.7057
0.6640	3.0801	4.7170
0.6670	3.0907	4.7281
0.6700	3.1013	4.7393
0.6730	3.1118	4.7504
0.6760	3.1222	4.7615
0.6790	3.1327	4.7725
0.6820	3.1431	4.7835
0.6850	3.1535	4.7945
0.6880	3.1638	4.8055
0.6910	3.1741	4.8164
0.6940	3.1844	4.8273
0.6970	3.1946	4.8382
0.7000	3.2049	4.8490
0.7030	3.2150	4.8598
0.7060	3.2252	4.8706
0.7090	3.2353	4.8813
0.7120	3.2454	4.8920
0.7150	3.2555	4.9027
0.7180	3.2655	4.9133
0.7210	3.2755	4.9240
0.7240	3.2854	4.9346
0.7270	3.2954	4.9451
0.7300	3.3053	4.9557
0.7330	3.3152	4.9662
0.7360	3.3250	4.9767
0.7390	3.3348	4.9872
0.7420	3.3446	4.9976
0.7450	3.3544	5.0080
0.7480	3.3641	5.0184
0.7510	3.3738	5.0288
0.7540	3.3835	5.0391
0.7570	3.3931	5.0494
0.7600	3.4027	5.0597
0.7630	3.4123	5.0700
0.7660	3.4218	5.0802
0.7690	3.4314	5.0905
0.7720	3.4409	5.1007
0.7750	3.4503	5.1108
0.7780	3.4598	5.1210
0.7810	3.4692	5.1311
0.7840	3.4786	5.1412
0.7870	3.4879	5.1513
0.7900	3.4973	5.1614
0.7930	3.5066	5.1714
0.7960	3.5159	5.1814
0.7990	3.5251	5.1914
0.8020	3.5343	5.2014
0.8050	3.5435	5.2114
0.8080	3.5527	5.2213
0.8110	3.5618	5.2312
0.8140	3.5710	5.2411
0.8170	3.5801	5.2510
0.8200	3.5891	5.2608
0.8230	3.5982	5.2707
0.8260	3.6072	5.2805
0.8290	3.6162	5.2903
0.8320	3.6251	5.3000
0.8350	3.6341	5.3098
0.8380	3.6430	5.3195
0.8410	3.6519	5.3292
0.8440	3.6608	5.3389
0.8470	3.6696	5.3486
0.8500	3.6784	5.3583
0.8530	3.6872	5.3679
0.8560	3.6960	5.3776
0.8590	3.7047	5.3872
0.8620	3.7134	5.3968
0.8650	3.7221	5.4063
0.8680	3.7308	5.4159
0.8710	3.7395	5.4254
0.8740	3.7481	5.4350
0.8770	3.7567	5.4445
0.8800	3.7653	5.4540
0.8830	3.7738	5.4634
0.8860	3.7824	5.4729
0.8890	3.7909	5.4823
0.8920	3.7994	5.4918
0.8950	3.8078	5.5012
0.8980	3.8163	5.5106
0.9010	3.8247	5.5199
0.9040	3.8331	5.5293
0.9070	3.8415	5.5387
0.9100	3.8498	5.5480
0.9130	3.8581	5.5573
0.9160	3.8665	5.5666
0.9190	3.8747	5.5759
0.9220	3.8830	5.5852
0.9250	3.8913	5.5944
0.9280	3.8995	5.6037
0.9310	3.9077	5.6129
0.9340	3.9159	5.6221
0.9370	3.9240	5.6313
0.9400	3.9322	5.6405
0.9430	3.9403	5.6497
0.9460	3.9484	5.6588
0.9490	3.9565	5.6680
0.9520	3.9645	5.6771
0.9550	3.9726	5.6862
0.9580	3.9806	5.6953
0.9610	3.9886	5.7044
0.9640	3.9965	5.7135
0.9670	4.0045	5.7225
0.9700	4.0124	5.7316
0.9730	4.0204	5.7406
0.9760	4.0283	5.7497
0.9790	4.0361	5.7587
0.9820	4.0440	5.7677
0.9850	4.0518	5.7766
0.9880	4.0597	5.7856
0.9910	4.0675	5.7946
0.9940	4.0752	5.8035
0.9970	4.0830	5.8125
1.0000	4.0907	5.8214
1.0075	4.1100	5.8437
1.0150	4.1292	5.8658
1.0225	4.1482	5.8880
1.0300	4.1671	5.9100
1.0375	4.1860	5.9320
1.0450	4.2047	5.9539
1.0525	4.2233	5.9757
1.0600	4.2418	5.9975
1.0675	4.2601	6.0192
1.0750	4.2784	6.0409
1.0825	4.2966	6.0624
1.0900	4.3146	6.0840
1.0975	4.3326	6.1054
1.1050	4.3505	6.1268
1.1125	4.3682	6.1482
1.1200	4.3859	6.1695
1.1275	4.4035	6.1907
1.1350	4.4209	6.2119
1.1425	4.4383	6.2330
1.1500	4.4556	6.2540
1.1575	4.4728	6.2751
1.1650	4.4899	6.2960
1.1725	4.5069	6.3169
1.1800	4.5238	6.3378
1.1875	4.5406	6.3586
1.1950	4.5573	6.3793
1.2025	4.5740	6.4001
1.2100	4.5905	6.4207
1.2175	4.6070	6.4413
1.2250	4.6234	6.4619
1.2325	4.6397	6.4824
1.2400	4.6559	6.5029
1.2475	4.6720	6.5233
1.2550	4.6881	6.5437
1.2625	4.7041	6.5641
1.2700	4.7199	6.5844
1.2775	4.7358	6.6046
1.2850	4.7515	6.6248
1.2925	4.7671	6.6450
1.3000	4.7827	6.6652
1.3075	4.7982	6.6853
1.3150	4.8136	6.7053
1.3225	4.8290	6.7253
1.3300	4.8443	6.7453
1.3375	4.8595	6.7653
1.3450	4.8746	6.7852
1.3525	4.8897	6.8050
1.3600	4.9046	6.8249
1.3675	4.9196	6.8447
1.3750	4.9344	6.8644
1.3825	4.9492	6.8842
1.3900	4.9639	6.9039
1.3975	4.9785	6.9235
1.4050	4.9931	6.9432
1.4125	5.0076	6.9628
1.4200	5.0220	6.9823
1.4275	5.0364	7.0018
1.4350	5.0507	7.0213
1.4425	5.0649	7.0408
1.4500	5.0791	7.0602
1.4575	5.0932	7.0797
1.4650	5.1073	7.0990
1.4725	5.1212	7.1184
1.4800	5.1352	7.1377
1.4875	5.1490	7.1570
1.4950	5.1628	7.1762
1.5025	5.1766	7.1955
1.5100	5.1902	7.2147
1.5175	5.2039	7.2338
1.5250	5.2174	7.2530
1.5325	5.2309	7.2721
1.5400	5.2444	7.2912
1.5475	5.2578	7.3102
1.5550	5.2711	7.3293
1.5625	5.2844	7.3483
1.5700	5.2976	7.3673
1.5775	5.3107	7.3862
1.5850	5.3238	7.4052
1.5925	5.3369	7.4241
1.6000	5.3499	7.4430
1.6075	5.3628	7.4618
1.6150	5.3757	7.4807
1.6225	5.3885	7.4995
1.6300	5.4013	7.5183
1.6375	5.4140	7.5370
1.6450	5.4267	7.5558
1.6525	5.4393	7.5745
1.6600	5.4519	7.5932
1.6675	5.4644	7.6119
1.6750	5.4769	7.6305
1.6825	5.4893	7.6492
1.6900	5.5017	7.6678
