Material: alloys / Ni-Fe / Tikuisis_gold10nm
Optical constants. K. K. Tikuišis, L. Beran, P. Cejpek, K. Uhlířová, J. Hamrle, M. Vaňatka, M. Urbánek, M. Veis. Optical and magneto-optical properties of permalloy thin films in 0.7-6.4 eV photon energy range, Mater. Des. 114, 31-39 (2017) (Numerical data kindly provided by Kristupas Kazimieras Tikuišis)
Comments: 10 nm thick Permalloy (80% nickel, 20% iron) film with protective 3 nm thick gold layer on top. Room temperature. Obtained by multi-angle spectroscopic ellipsometry.
wavelength (um)	n	k
0.1930	0.9938	1.5916
0.1960	1.0161	1.6219
0.1990	1.0383	1.6503
0.2020	1.0603	1.6769
0.2050	1.0820	1.7018
0.2080	1.1033	1.7251
0.2110	1.1239	1.7469
0.2140	1.1437	1.7673
0.2170	1.1628	1.7866
0.2200	1.1810	1.8048
0.2230	1.1983	1.8221
0.2260	1.2146	1.8388
0.2290	1.2299	1.8548
0.2320	1.2442	1.8703
0.2350	1.2577	1.8856
0.2380	1.2702	1.9006
0.2410	1.2819	1.9156
0.2440	1.2928	1.9305
0.2470	1.3030	1.9455
0.2500	1.3125	1.9607
0.2530	1.3215	1.9761
0.2560	1.3300	1.9917
0.2590	1.3380	2.0076
0.2620	1.3457	2.0237
0.2650	1.3530	2.0402
0.2680	1.3601	2.0570
0.2710	1.3671	2.0741
0.2740	1.3739	2.0914
0.2770	1.3806	2.1091
0.2800	1.3872	2.1270
0.2830	1.3939	2.1452
0.2860	1.4005	2.1636
0.2890	1.4072	2.1823
0.2920	1.4140	2.2011
0.2950	1.4208	2.2201
0.2980	1.4278	2.2392
0.3010	1.4349	2.2585
0.3040	1.4421	2.2779
0.3070	1.4494	2.2974
0.3100	1.4568	2.3170
0.3130	1.4645	2.3366
0.3160	1.4722	2.3563
0.3190	1.4801	2.3760
0.3220	1.4882	2.3957
0.3250	1.4964	2.4154
0.3280	1.5047	2.4351
0.3310	1.5132	2.4548
0.3340	1.5218	2.4745
0.3370	1.5306	2.4941
0.3400	1.5395	2.5137
0.3430	1.5486	2.5332
0.3460	1.5577	2.5527
0.3490	1.5670	2.5721
0.3520	1.5764	2.5914
0.3550	1.5859	2.6106
0.3580	1.5955	2.6298
0.3610	1.6053	2.6488
0.3640	1.6151	2.6678
0.3670	1.6250	2.6867
0.3700	1.6350	2.7055
0.3730	1.6451	2.7241
0.3760	1.6553	2.7427
0.3790	1.6656	2.7612
0.3820	1.6759	2.7796
0.3850	1.6863	2.7978
0.3880	1.6968	2.8160
0.3910	1.7073	2.8340
0.3940	1.7179	2.8520
0.3970	1.7286	2.8698
0.4000	1.7393	2.8875
0.4030	1.7500	2.9052
0.4060	1.7608	2.9227
0.4090	1.7717	2.9400
0.4120	1.7826	2.9573
0.4150	1.7935	2.9745
0.4180	1.8044	2.9916
0.4210	1.8154	3.0085
0.4240	1.8265	3.0254
0.4270	1.8375	3.0421
0.4300	1.8486	3.0587
0.4330	1.8597	3.0753
0.4360	1.8708	3.0917
0.4390	1.8819	3.1080
0.4420	1.8931	3.1242
0.4450	1.9042	3.1403
0.4480	1.9154	3.1563
0.4510	1.9266	3.1722
0.4540	1.9378	3.1880
0.4570	1.9490	3.2037
0.4600	1.9603	3.2193
0.4630	1.9715	3.2348
0.4660	1.9827	3.2503
0.4690	1.9939	3.2656
0.4720	2.0052	3.2808
0.4750	2.0164	3.2959
0.4780	2.0276	3.3110
0.4810	2.0389	3.3259
0.4840	2.0501	3.3408
0.4870	2.0613	3.3555
0.4900	2.0726	3.3702
0.4930	2.0838	3.3848
0.4960	2.0950	3.3993
0.4990	2.1062	3.4137
0.5020	2.1174	3.4281
0.5050	2.1286	3.4423
0.5080	2.1397	3.4565
0.5110	2.1509	3.4706
0.5140	2.1620	3.4846
0.5170	2.1732	3.4985
0.5200	2.1843	3.5123
0.5230	2.1954	3.5261
0.5260	2.2065	3.5398
0.5290	2.2176	3.5534
0.5320	2.2287	3.5670
0.5350	2.2397	3.5804
0.5380	2.2508	3.5938
0.5410	2.2618	3.6071
0.5440	2.2728	3.6204
0.5470	2.2838	3.6336
0.5500	2.2947	3.6467
0.5530	2.3057	3.6597
0.5560	2.3166	3.6727
0.5590	2.3275	3.6856
0.5620	2.3384	3.6984
0.5650	2.3493	3.7112
0.5680	2.3601	3.7239
0.5710	2.3710	3.7365
0.5740	2.3818	3.7491
0.5770	2.3926	3.7616
0.5800	2.4034	3.7741
0.5830	2.4141	3.7865
0.5860	2.4248	3.7988
0.5890	2.4355	3.8111
0.5920	2.4462	3.8233
0.5950	2.4569	3.8355
0.5980	2.4675	3.8476
0.6010	2.4782	3.8596
0.6040	2.4888	3.8716
0.6070	2.4993	3.8835
0.6100	2.5099	3.8954
0.6130	2.5204	3.9072
0.6160	2.5309	3.9190
0.6190	2.5414	3.9307
0.6220	2.5519	3.9423
0.6250	2.5623	3.9539
0.6280	2.5727	3.9655
0.6310	2.5831	3.9770
0.6340	2.5935	3.9885
0.6370	2.6038	3.9999
0.6400	2.6142	4.0112
0.6430	2.6245	4.0225
0.6460	2.6347	4.0338
0.6490	2.6450	4.0450
0.6520	2.6552	4.0562
0.6550	2.6654	4.0673
0.6580	2.6756	4.0784
0.6610	2.6857	4.0894
0.6640	2.6959	4.1004
0.6670	2.7060	4.1113
0.6700	2.7161	4.1222
0.6730	2.7261	4.1331
0.6760	2.7362	4.1439
0.6790	2.7462	4.1546
0.6820	2.7562	4.1654
0.6850	2.7661	4.1760
0.6880	2.7761	4.1867
0.6910	2.7860	4.1973
0.6940	2.7959	4.2078
0.6970	2.8058	4.2184
0.7000	2.8156	4.2289
0.7030	2.8254	4.2393
0.7060	2.8352	4.2497
0.7090	2.8450	4.2601
0.7120	2.8548	4.2704
0.7150	2.8645	4.2807
0.7180	2.8742	4.2909
0.7210	2.8839	4.3012
0.7240	2.8935	4.3114
0.7270	2.9032	4.3215
0.7300	2.9128	4.3316
0.7330	2.9224	4.3417
0.7360	2.9319	4.3517
0.7390	2.9415	4.3617
0.7420	2.9510	4.3717
0.7450	2.9605	4.3817
0.7480	2.9700	4.3916
0.7510	2.9794	4.4014
0.7540	2.9889	4.4113
0.7570	2.9983	4.4211
0.7600	3.0077	4.4309
0.7630	3.0170	4.4406
0.7660	3.0263	4.4503
0.7690	3.0357	4.4600
0.7720	3.0450	4.4697
0.7750	3.0542	4.4793
0.7780	3.0635	4.4889
0.7810	3.0727	4.4985
0.7840	3.0819	4.5080
0.7870	3.0911	4.5175
0.7900	3.1002	4.5270
0.7930	3.1094	4.5364
0.7960	3.1185	4.5458
0.7990	3.1276	4.5552
0.8020	3.1367	4.5646
0.8050	3.1457	4.5739
0.8080	3.1547	4.5832
0.8110	3.1637	4.5925
0.8140	3.1727	4.6018
0.8170	3.1817	4.6110
0.8200	3.1906	4.6202
0.8230	3.1996	4.6294
0.8260	3.2085	4.6385
0.8290	3.2173	4.6477
0.8320	3.2262	4.6568
0.8350	3.2350	4.6658
0.8380	3.2439	4.6749
0.8410	3.2526	4.6839
0.8440	3.2614	4.6929
0.8470	3.2702	4.7019
0.8500	3.2789	4.7109
0.8530	3.2876	4.7198
0.8560	3.2963	4.7287
0.8590	3.3050	4.7376
0.8620	3.3136	4.7464
0.8650	3.3223	4.7553
0.8680	3.3309	4.7641
0.8710	3.3395	4.7729
0.8740	3.3481	4.7817
0.8770	3.3566	4.7904
0.8800	3.3651	4.7991
0.8830	3.3737	4.8078
0.8860	3.3821	4.8165
0.8890	3.3906	4.8252
0.8920	3.3991	4.8338
0.8950	3.4075	4.8424
0.8980	3.4159	4.8510
0.9010	3.4243	4.8596
0.9040	3.4327	4.8682
0.9070	3.4411	4.8767
0.9100	3.4494	4.8852
0.9130	3.4577	4.8937
0.9160	3.4660	4.9022
0.9190	3.4743	4.9107
0.9220	3.4826	4.9191
0.9250	3.4908	4.9275
0.9280	3.4990	4.9359
0.9310	3.5073	4.9443
0.9340	3.5155	4.9527
0.9370	3.5236	4.9610
0.9400	3.5318	4.9693
0.9430	3.5399	4.9776
0.9460	3.5480	4.9859
0.9490	3.5561	4.9942
0.9520	3.5642	5.0025
0.9550	3.5723	5.0107
0.9580	3.5803	5.0189
0.9610	3.5884	5.0271
0.9640	3.5964	5.0353
0.9670	3.6044	5.0435
0.9700	3.6123	5.0516
0.9730	3.6203	5.0597
0.9760	3.6282	5.0679
0.9790	3.6362	5.0760
0.9820	3.6441	5.0840
0.9850	3.6520	5.0921
0.9880	3.6598	5.1002
0.9910	3.6677	5.1082
0.9940	3.6755	5.1162
0.9970	3.6834	5.1242
1.0000	3.6912	5.1322
1.0075	3.7106	5.1521
1.0150	3.7300	5.1719
1.0225	3.7492	5.1916
1.0300	3.7683	5.2112
1.0375	3.7874	5.2307
1.0450	3.8063	5.2502
1.0525	3.8252	5.2695
1.0600	3.8439	5.2888
1.0675	3.8626	5.3080
1.0750	3.8811	5.3271
1.0825	3.8996	5.3461
1.0900	3.9180	5.3650
1.0975	3.9362	5.3839
1.1050	3.9544	5.4026
1.1125	3.9725	5.4213
1.1200	3.9905	5.4400
1.1275	4.0085	5.4585
1.1350	4.0263	5.4770
1.1425	4.0440	5.4954
1.1500	4.0617	5.5137
1.1575	4.0793	5.5320
1.1650	4.0968	5.5502
1.1725	4.1142	5.5683
1.1800	4.1315	5.5864
1.1875	4.1488	5.6044
1.1950	4.1659	5.6223
1.2025	4.1830	5.6402
1.2100	4.2000	5.6580
1.2175	4.2170	5.6758
1.2250	4.2338	5.6935
1.2325	4.2506	5.7111
1.2400	4.2673	5.7287
1.2475	4.2839	5.7462
1.2550	4.3005	5.7637
1.2625	4.3170	5.7811
1.2700	4.3334	5.7984
1.2775	4.3497	5.8157
1.2850	4.3660	5.8329
1.2925	4.3822	5.8501
1.3000	4.3983	5.8673
1.3075	4.4144	5.8844
1.3150	4.4304	5.9014
1.3225	4.4463	5.9184
1.3300	4.4621	5.9353
1.3375	4.4779	5.9522
1.3450	4.4936	5.9690
1.3525	4.5093	5.9858
1.3600	4.5249	6.0026
1.3675	4.5404	6.0193
1.3750	4.5558	6.0359
1.3825	4.5712	6.0525
1.3900	4.5866	6.0691
1.3975	4.6018	6.0856
1.4050	4.6170	6.1021
1.4125	4.6322	6.1185
1.4200	4.6473	6.1349
1.4275	4.6623	6.1513
1.4350	4.6773	6.1676
1.4425	4.6922	6.1839
1.4500	4.7070	6.2001
1.4575	4.7218	6.2163
1.4650	4.7365	6.2324
1.4725	4.7512	6.2485
1.4800	4.7658	6.2646
1.4875	4.7804	6.2806
1.4950	4.7949	6.2966
1.5025	4.8094	6.3126
1.5100	4.8238	6.3285
1.5175	4.8381	6.3444
1.5250	4.8524	6.3602
1.5325	4.8666	6.3761
1.5400	4.8808	6.3918
1.5475	4.8950	6.4076
1.5550	4.9090	6.4233
1.5625	4.9231	6.4390
1.5700	4.9370	6.4546
1.5775	4.9510	6.4702
1.5850	4.9648	6.4858
1.5925	4.9787	6.5013
1.6000	4.9924	6.5169
1.6075	5.0062	6.5323
1.6150	5.0199	6.5478
1.6225	5.0335	6.5632
1.6300	5.0471	6.5786
1.6375	5.0606	6.5939
1.6450	5.0741	6.6093
1.6525	5.0875	6.6246
1.6600	5.1009	6.6398
1.6675	5.1143	6.6551
1.6750	5.1276	6.6703
1.6825	5.1408	6.6855
1.6900	5.1540	6.7006
