Material: alloys / Ni-Fe / Tikuisis_gold150nm
Optical constants. K. K. Tikuišis, L. Beran, P. Cejpek, K. Uhlířová, J. Hamrle, M. Vaňatka, M. Urbánek, M. Veis. Optical and magneto-optical properties of permalloy thin films in 0.7-6.4 eV photon energy range, Mater. Des. 114, 31-39 (2017) (Numerical data kindly provided by Kristupas Kazimieras Tikuišis)
Comments: 150 nm thick Permalloy (80% nickel, 20% iron) film with 3 nm protective gold layer on top. Room temperature. Obtained by multi-angle spectroscopic ellipsometry.
wavelength (um)	n	k
0.1930	0.8395	1.6247
0.1960	0.8618	1.6601
0.1990	0.8848	1.6934
0.2020	0.9082	1.7249
0.2050	0.9319	1.7545
0.2080	0.9558	1.7823
0.2110	0.9797	1.8082
0.2140	1.0035	1.8324
0.2170	1.0271	1.8550
0.2200	1.0503	1.8759
0.2230	1.0729	1.8953
0.2260	1.0949	1.9133
0.2290	1.1162	1.9300
0.2320	1.1366	1.9455
0.2350	1.1561	1.9599
0.2380	1.1746	1.9735
0.2410	1.1921	1.9863
0.2440	1.2086	1.9984
0.2470	1.2240	2.0101
0.2500	1.2384	2.0214
0.2530	1.2518	2.0324
0.2560	1.2642	2.0433
0.2590	1.2757	2.0542
0.2620	1.2864	2.0652
0.2650	1.2962	2.0762
0.2680	1.3053	2.0875
0.2710	1.3137	2.0991
0.2740	1.3215	2.1109
0.2770	1.3288	2.1231
0.2800	1.3356	2.1356
0.2830	1.3420	2.1486
0.2860	1.3481	2.1619
0.2890	1.3539	2.1756
0.2920	1.3595	2.1897
0.2950	1.3650	2.2041
0.2980	1.3703	2.2190
0.3010	1.3756	2.2341
0.3040	1.3808	2.2496
0.3070	1.3860	2.2655
0.3100	1.3912	2.2816
0.3130	1.3965	2.2980
0.3160	1.4018	2.3146
0.3190	1.4072	2.3315
0.3220	1.4127	2.3486
0.3250	1.4183	2.3658
0.3280	1.4241	2.3832
0.3310	1.4300	2.4008
0.3340	1.4360	2.4185
0.3370	1.4421	2.4364
0.3400	1.4484	2.4543
0.3430	1.4549	2.4723
0.3460	1.4615	2.4903
0.3490	1.4682	2.5085
0.3520	1.4751	2.5266
0.3550	1.4822	2.5448
0.3580	1.4894	2.5630
0.3610	1.4967	2.5812
0.3640	1.5042	2.5994
0.3670	1.5118	2.6176
0.3700	1.5195	2.6358
0.3730	1.5274	2.6539
0.3760	1.5354	2.6721
0.3790	1.5435	2.6901
0.3820	1.5517	2.7082
0.3850	1.5601	2.7261
0.3880	1.5685	2.7441
0.3910	1.5771	2.7619
0.3940	1.5858	2.7797
0.3970	1.5945	2.7974
0.4000	1.6034	2.8151
0.4030	1.6123	2.8327
0.4060	1.6213	2.8502
0.4090	1.6304	2.8676
0.4120	1.6396	2.8850
0.4150	1.6489	2.9023
0.4180	1.6582	2.9194
0.4210	1.6676	2.9366
0.4240	1.6771	2.9536
0.4270	1.6866	2.9705
0.4300	1.6962	2.9874
0.4330	1.7058	3.0041
0.4360	1.7155	3.0208
0.4390	1.7252	3.0374
0.4420	1.7350	3.0539
0.4450	1.7448	3.0703
0.4480	1.7547	3.0866
0.4510	1.7646	3.1028
0.4540	1.7745	3.1190
0.4570	1.7845	3.1350
0.4600	1.7945	3.1510
0.4630	1.8046	3.1669
0.4660	1.8146	3.1826
0.4690	1.8247	3.1983
0.4720	1.8348	3.2140
0.4750	1.8450	3.2295
0.4780	1.8551	3.2449
0.4810	1.8653	3.2603
0.4840	1.8755	3.2755
0.4870	1.8857	3.2907
0.4900	1.8960	3.3058
0.4930	1.9062	3.3209
0.4960	1.9165	3.3358
0.4990	1.9267	3.3506
0.5020	1.9370	3.3654
0.5050	1.9473	3.3801
0.5080	1.9575	3.3947
0.5110	1.9678	3.4092
0.5140	1.9781	3.4237
0.5170	1.9884	3.4381
0.5200	1.9987	3.4524
0.5230	2.0090	3.4666
0.5260	2.0193	3.4807
0.5290	2.0296	3.4948
0.5320	2.0399	3.5088
0.5350	2.0502	3.5227
0.5380	2.0605	3.5366
0.5410	2.0708	3.5503
0.5440	2.0811	3.5641
0.5470	2.0914	3.5777
0.5500	2.1016	3.5913
0.5530	2.1119	3.6048
0.5560	2.1222	3.6182
0.5590	2.1324	3.6315
0.5620	2.1426	3.6448
0.5650	2.1529	3.6581
0.5680	2.1631	3.6712
0.5710	2.1733	3.6843
0.5740	2.1835	3.6973
0.5770	2.1937	3.7103
0.5800	2.2039	3.7232
0.5830	2.2140	3.7361
0.5860	2.2242	3.7488
0.5890	2.2343	3.7616
0.5920	2.2445	3.7742
0.5950	2.2546	3.7868
0.5980	2.2647	3.7994
0.6010	2.2747	3.8118
0.6040	2.2848	3.8243
0.6070	2.2949	3.8366
0.6100	2.3049	3.8490
0.6130	2.3149	3.8612
0.6160	2.3249	3.8734
0.6190	2.3349	3.8856
0.6220	2.3449	3.8976
0.6250	2.3549	3.9097
0.6280	2.3648	3.9217
0.6310	2.3747	3.9336
0.6340	2.3846	3.9455
0.6370	2.3945	3.9573
0.6400	2.4044	3.9691
0.6430	2.4142	3.9808
0.6460	2.4241	3.9925
0.6490	2.4339	4.0041
0.6520	2.4437	4.0157
0.6550	2.4535	4.0272
0.6580	2.4632	4.0387
0.6610	2.4730	4.0502
0.6640	2.4827	4.0616
0.6670	2.4924	4.0729
0.6700	2.5021	4.0842
0.6730	2.5117	4.0955
0.6760	2.5214	4.1067
0.6790	2.5310	4.1178
0.6820	2.5406	4.1290
0.6850	2.5502	4.1400
0.6880	2.5597	4.1511
0.6910	2.5693	4.1621
0.6940	2.5788	4.1730
0.6970	2.5883	4.1839
0.7000	2.5978	4.1948
0.7030	2.6073	4.2056
0.7060	2.6167	4.2164
0.7090	2.6261	4.2272
0.7120	2.6355	4.2379
0.7150	2.6449	4.2485
0.7180	2.6543	4.2592
0.7210	2.6636	4.2698
0.7240	2.6730	4.2803
0.7270	2.6823	4.2908
0.7300	2.6915	4.3013
0.7330	2.7008	4.3118
0.7360	2.7100	4.3222
0.7390	2.7193	4.3326
0.7420	2.7285	4.3429
0.7450	2.7376	4.3532
0.7480	2.7468	4.3635
0.7510	2.7559	4.3737
0.7540	2.7651	4.3839
0.7570	2.7742	4.3941
0.7600	2.7832	4.4042
0.7630	2.7923	4.4143
0.7660	2.8013	4.4244
0.7690	2.8103	4.4344
0.7720	2.8193	4.4444
0.7750	2.8283	4.4544
0.7780	2.8373	4.4643
0.7810	2.8462	4.4742
0.7840	2.8551	4.4841
0.7870	2.8640	4.4939
0.7900	2.8729	4.5037
0.7930	2.8817	4.5135
0.7960	2.8906	4.5233
0.7990	2.8994	4.5330
0.8020	2.9082	4.5427
0.8050	2.9169	4.5524
0.8080	2.9257	4.5620
0.8110	2.9344	4.5716
0.8140	2.9431	4.5812
0.8170	2.9518	4.5907
0.8200	2.9605	4.6003
0.8230	2.9692	4.6098
0.8260	2.9778	4.6192
0.8290	2.9864	4.6287
0.8320	2.9950	4.6381
0.8350	3.0036	4.6475
0.8380	3.0121	4.6569
0.8410	3.0206	4.6662
0.8440	3.0292	4.6755
0.8470	3.0377	4.6848
0.8500	3.0461	4.6941
0.8530	3.0546	4.7033
0.8560	3.0630	4.7125
0.8590	3.0714	4.7217
0.8620	3.0798	4.7309
0.8650	3.0882	4.7400
0.8680	3.0966	4.7492
0.8710	3.1049	4.7582
0.8740	3.1132	4.7673
0.8770	3.1215	4.7764
0.8800	3.1298	4.7854
0.8830	3.1381	4.7944
0.8860	3.1463	4.8034
0.8890	3.1546	4.8123
0.8920	3.1628	4.8213
0.8950	3.1710	4.8302
0.8980	3.1791	4.8391
0.9010	3.1873	4.8479
0.9040	3.1954	4.8568
0.9070	3.2035	4.8656
0.9100	3.2116	4.8744
0.9130	3.2197	4.8832
0.9160	3.2278	4.8920
0.9190	3.2358	4.9007
0.9220	3.2438	4.9095
0.9250	3.2518	4.9182
0.9280	3.2598	4.9268
0.9310	3.2678	4.9355
0.9340	3.2758	4.9441
0.9370	3.2837	4.9528
0.9400	3.2916	4.9614
0.9430	3.2995	4.9700
0.9460	3.3074	4.9785
0.9490	3.3153	4.9871
0.9520	3.3231	4.9956
0.9550	3.3309	5.0041
0.9580	3.3387	5.0126
0.9610	3.3465	5.0211
0.9640	3.3543	5.0295
0.9670	3.3621	5.0380
0.9700	3.3698	5.0464
0.9730	3.3775	5.0548
0.9760	3.3853	5.0632
0.9790	3.3929	5.0716
0.9820	3.4006	5.0799
0.9850	3.4083	5.0883
0.9880	3.4159	5.0966
0.9910	3.4235	5.1049
0.9940	3.4312	5.1132
0.9970	3.4387	5.1214
1.0000	3.4463	5.1297
1.0075	3.4652	5.1502
1.0150	3.4839	5.1707
1.0225	3.5026	5.1910
1.0300	3.5212	5.2113
1.0375	3.5396	5.2315
1.0450	3.5580	5.2515
1.0525	3.5763	5.2715
1.0600	3.5944	5.2914
1.0675	3.6125	5.3112
1.0750	3.6305	5.3309
1.0825	3.6484	5.3506
1.0900	3.6662	5.3701
1.0975	3.6839	5.3896
1.1050	3.7015	5.4090
1.1125	3.7190	5.4283
1.1200	3.7364	5.4475
1.1275	3.7538	5.4667
1.1350	3.7710	5.4858
1.1425	3.7882	5.5048
1.1500	3.8052	5.5237
1.1575	3.8222	5.5426
1.1650	3.8391	5.5614
1.1725	3.8560	5.5802
1.1800	3.8727	5.5988
1.1875	3.8894	5.6174
1.1950	3.9059	5.6359
1.2025	3.9224	5.6544
1.2100	3.9389	5.6728
1.2175	3.9552	5.6912
1.2250	3.9715	5.7094
1.2325	3.9876	5.7277
1.2400	4.0037	5.7458
1.2475	4.0198	5.7639
1.2550	4.0357	5.7820
1.2625	4.0516	5.8000
1.2700	4.0674	5.8179
1.2775	4.0831	5.8358
1.2850	4.0988	5.8536
1.2925	4.1144	5.8714
1.3000	4.1299	5.8891
1.3075	4.1453	5.9068
1.3150	4.1607	5.9244
1.3225	4.1760	5.9420
1.3300	4.1912	5.9595
1.3375	4.2064	5.9770
1.3450	4.2214	5.9944
1.3525	4.2365	6.0118
1.3600	4.2514	6.0291
1.3675	4.2663	6.0464
1.3750	4.2811	6.0636
1.3825	4.2959	6.0808
1.3900	4.3106	6.0979
1.3975	4.3252	6.1151
1.4050	4.3398	6.1321
1.4125	4.3543	6.1491
1.4200	4.3687	6.1661
1.4275	4.3831	6.1830
1.4350	4.3974	6.1999
1.4425	4.4117	6.2168
1.4500	4.4259	6.2336
1.4575	4.4400	6.2504
1.4650	4.4541	6.2671
1.4725	4.4681	6.2838
1.4800	4.4821	6.3005
1.4875	4.4960	6.3171
1.4950	4.5099	6.3337
1.5025	4.5236	6.3502
1.5100	4.5374	6.3668
1.5175	4.5510	6.3832
1.5250	4.5647	6.3997
1.5325	4.5782	6.4161
1.5400	4.5917	6.4325
1.5475	4.6052	6.4488
1.5550	4.6186	6.4651
1.5625	4.6320	6.4814
1.5700	4.6453	6.4976
1.5775	4.6585	6.5139
1.5850	4.6717	6.5300
1.5925	4.6848	6.5462
1.6000	4.6979	6.5623
1.6075	4.7109	6.5784
1.6150	4.7239	6.5944
1.6225	4.7369	6.6105
1.6300	4.7498	6.6265
1.6375	4.7626	6.6424
1.6450	4.7754	6.6584
1.6525	4.7881	6.6743
1.6600	4.8008	6.6902
1.6675	4.8135	6.7060
1.6750	4.8260	6.7218
1.6825	4.8386	6.7376
1.6900	4.8511	6.7534
