Material: perovskite / CH3NH3PbI3 / Ball
Optical constants. J. M. Ball, S. D. Stranks, M. T. Hörantner, S. Hüttner, W. Zhang, E. J. W. Crossland, I. Ramirez, M. Riede, M. B. Johnston, R. H. Friend, H. J. Snaith. Optical properties and limiting photocurrent of thin-film perovskite solar cells, Energy Environ. Sci 8, 602-609 (2015) - see Supplementary materials
wavelength (um)	n	k
0.301	1.48952	0.83040
0.303	1.48040	0.83925
0.305	1.47298	0.85049
0.307	1.46740	0.86393
0.309	1.46386	0.87895
0.311	1.46242	0.89544
0.313	1.46301	0.91286
0.315	1.46574	0.93109
0.317	1.47055	0.94973
0.319	1.47731	0.96861
0.321	1.48612	0.98744
0.323	1.49684	1.00611
0.325	1.50928	1.02417
0.327	1.52351	1.04186
0.329	1.53924	1.05858
0.331	1.55655	1.07460
0.333	1.57516	1.08945
0.335	1.59496	1.10312
0.337	1.61591	1.11566
0.339	1.63770	1.12679
0.341	1.66044	1.13654
0.343	1.68366	1.14485
0.345	1.70740	1.15164
0.347	1.73161	1.15691
0.349	1.75588	1.16072
0.351	1.78026	1.16302
0.353	1.80449	1.16380
0.355	1.82842	1.16315
0.357	1.85212	1.16104
0.359	1.87528	1.15769
0.361	1.89776	1.15310
0.363	1.91961	1.14730
0.365	1.94071	1.14044
0.367	1.96075	1.13258
0.369	1.98005	1.12386
0.371	1.99829	1.11440
0.373	2.01558	1.10430
0.375	2.03175	1.09362
0.377	2.04697	1.08248
0.379	2.06104	1.07111
0.381	2.07414	1.05946
0.383	2.08625	1.04765
0.385	2.09732	1.03577
0.387	2.10742	1.02398
0.389	2.11655	1.01230
0.391	2.12493	1.00072
0.393	2.13241	0.98940
0.395	2.13910	0.97839
0.397	2.14513	0.96769
0.399	2.15047	0.95732
0.401	2.15521	0.94740
0.403	2.15935	0.93793
0.405	2.16308	0.92888
0.407	2.16630	0.92029
0.409	2.16916	0.91224
0.411	2.17164	0.90465
0.413	2.17384	0.89755
0.415	2.17584	0.89098
0.417	2.17764	0.88491
0.419	2.17926	0.87933
0.421	2.18077	0.87421
0.423	2.18231	0.86959
0.425	2.18377	0.86542
0.427	2.18523	0.86169
0.429	2.18677	0.85839
0.431	2.18837	0.85550
0.433	2.19014	0.85299
0.435	2.19200	0.85082
0.437	2.19408	0.84901
0.439	2.19636	0.84749
0.441	2.19884	0.84626
0.443	2.20160	0.84526
0.445	2.20464	0.84450
0.447	2.20787	0.84391
0.449	2.21140	0.84349
0.451	2.21529	0.84319
0.453	2.21938	0.84298
0.455	2.22389	0.84283
0.457	2.22859	0.84270
0.459	2.23372	0.84257
0.461	2.23906	0.84240
0.463	2.24475	0.84217
0.465	2.25063	0.84184
0.467	2.25690	0.84139
0.469	2.26333	0.84078
0.471	2.27002	0.84001
0.473	2.27697	0.83903
0.475	2.28410	0.83784
0.477	2.29141	0.83641
0.479	2.29885	0.83472
0.481	2.30638	0.83278
0.483	2.31414	0.83054
0.485	2.32194	0.82803
0.487	2.32975	0.82521
0.489	2.33762	0.82210
0.491	2.34552	0.81869
0.493	2.35335	0.81499
0.495	2.36120	0.81097
0.497	2.36891	0.80668
0.499	2.37657	0.80209
0.501	2.38410	0.79724
0.503	2.39156	0.79210
0.505	2.39879	0.78672
0.507	2.40591	0.78110
0.509	2.41287	0.77525
0.511	2.41952	0.76920
0.513	2.42610	0.76294
0.515	2.43239	0.75649
0.517	2.43847	0.74991
0.519	2.44432	0.74315
0.521	2.44991	0.73628
0.523	2.45528	0.72928
0.525	2.46040	0.72218
0.527	2.46522	0.71499
0.529	2.46989	0.70778
0.531	2.47428	0.70048
0.533	2.47841	0.69314
0.535	2.48223	0.68578
0.537	2.48587	0.67844
0.539	2.48931	0.67107
0.541	2.49248	0.66372
0.543	2.49545	0.65639
0.545	2.49823	0.64909
0.547	2.50067	0.64185
0.549	2.50302	0.63468
0.551	2.50520	0.62755
0.553	2.50708	0.62048
0.555	2.50887	0.61348
0.557	2.51044	0.60657
0.559	2.51180	0.59975
0.561	2.51308	0.59302
0.563	2.51415	0.58637
0.565	2.51510	0.57983
0.567	2.51593	0.57339
0.569	2.51656	0.56706
0.571	2.51713	0.56083
0.573	2.51751	0.55470
0.575	2.51785	0.54869
0.577	2.51810	0.54279
0.579	2.51820	0.53696
0.581	2.51820	0.53129
0.583	2.51817	0.52572
0.585	2.51803	0.52026
0.587	2.51778	0.51492
0.589	2.51748	0.50968
0.591	2.51710	0.50454
0.593	2.51670	0.49953
0.595	2.51621	0.49463
0.597	2.51569	0.48982
0.599	2.51514	0.48513
0.601	2.51452	0.48055
0.603	2.51379	0.47604
0.605	2.51316	0.47167
0.607	2.51242	0.46739
0.609	2.51159	0.46321
0.611	2.51086	0.45914
0.613	2.51002	0.45515
0.615	2.50919	0.45126
0.617	2.50835	0.44747
0.619	2.50749	0.44376
0.621	2.50662	0.44017
0.623	2.50574	0.43664
0.625	2.50486	0.43322
0.627	2.50398	0.42986
0.629	2.50305	0.42661
0.631	2.50212	0.42344
0.633	2.50124	0.42035
0.635	2.50036	0.41733
0.637	2.49948	0.41440
0.639	2.49860	0.41155
0.641	2.49774	0.40878
0.643	2.49691	0.40608
0.645	2.49607	0.40346
0.647	2.49519	0.40090
0.649	2.49440	0.39842
0.651	2.49357	0.39601
0.653	2.49283	0.39368
0.655	2.49210	0.39141
0.657	2.49136	0.38921
0.659	2.49063	0.38707
0.661	2.48996	0.38500
0.663	2.48927	0.38299
0.665	2.48868	0.38105
0.667	2.48809	0.37917
0.669	2.48750	0.37736
0.671	2.48701	0.37560
0.673	2.48652	0.37390
0.675	2.48611	0.37227
0.677	2.48567	0.37069
0.679	2.48532	0.36917
0.681	2.48498	0.36769
0.683	2.48473	0.36628
0.685	2.48459	0.36493
0.687	2.48440	0.36363
0.689	2.48430	0.36238
0.691	2.48430	0.36118
0.693	2.48430	0.36003
0.695	2.48444	0.35894
0.697	2.48459	0.35789
0.699	2.48483	0.35689
0.701	2.48518	0.35593
0.703	2.48565	0.35501
0.705	2.48615	0.35415
0.707	2.48676	0.35331
0.709	2.48750	0.35251
0.711	2.48834	0.35175
0.713	2.48933	0.35100
0.715	2.49042	0.35028
0.717	2.49165	0.34958
0.719	2.49308	0.34889
0.721	2.49459	0.34820
0.723	2.49632	0.34750
0.725	2.49818	0.34678
0.727	2.50033	0.34603
0.729	2.50265	0.34521
0.731	2.50514	0.34435
0.733	2.50795	0.34337
0.735	2.51098	0.34228
0.737	2.51429	0.34104
0.739	2.51781	0.33959
0.741	2.52172	0.33791
0.743	2.52582	0.33594
0.745	2.53022	0.33363
0.747	2.53491	0.33088
0.749	2.53980	0.32766
0.751	2.54498	0.32385
0.753	2.55017	0.31941
0.755	2.55549	0.31423
0.757	2.56074	0.30825
0.759	2.56579	0.30139
0.761	2.57048	0.29365
0.763	2.57455	0.28502
0.765	2.57796	0.27551
0.767	2.58033	0.26534
0.769	2.58150	0.25461
0.771	2.58145	0.24355
0.773	2.57996	0.23251
0.775	2.57709	0.22173
0.777	2.57294	0.21150
0.779	2.56764	0.20212
0.781	2.56148	0.19376
0.783	2.55467	0.18654
0.785	2.54743	0.18055
0.787	2.54009	0.17572
0.789	2.53290	0.17206
0.791	2.52600	0.16941
0.793	2.51961	0.16767
0.795	2.51402	0.16667
0.797	2.50932	0.16592
0.799	2.50512	0.16515
0.801	2.50130	0.16437
0.803	2.49780	0.16358
0.805	2.49450	0.16278
0.807	2.49143	0.16198
0.809	2.48857	0.16118
0.811	2.48584	0.16038
0.813	2.48323	0.15958
0.815	2.48074	0.15879
0.817	2.47837	0.15799
0.819	2.47603	0.15721
0.821	2.47390	0.15643
0.823	2.47172	0.15564
0.825	2.46963	0.15487
0.827	2.46770	0.15410
0.829	2.46576	0.15334
0.831	2.46392	0.15259
0.833	2.46207	0.15183
0.835	2.46033	0.15108
0.837	2.45859	0.15035
0.839	2.45695	0.14961
0.841	2.45530	0.14888
0.843	2.45371	0.14816
0.845	2.45212	0.14745
0.847	2.45062	0.14674
0.849	2.44912	0.14603
0.851	2.44768	0.14534
0.853	2.44623	0.14464
0.855	2.44484	0.14396
0.857	2.44344	0.14328
0.859	2.44214	0.14261
0.861	2.44084	0.14194
0.863	2.43949	0.14128
0.865	2.43824	0.14062
0.867	2.43699	0.13997
0.869	2.43574	0.13933
0.871	2.43459	0.13869
0.873	2.43334	0.13806
0.875	2.43219	0.13744
0.877	2.43104	0.13681
0.879	2.42989	0.13620
0.881	2.42883	0.13559
0.883	2.42769	0.13498
0.885	2.42664	0.13438
0.887	2.42554	0.13379
0.889	2.42454	0.13320
0.891	2.42343	0.13262
0.893	2.42243	0.13204
0.895	2.42143	0.13147
0.897	2.42042	0.13089
0.899	2.41942	0.13033
