Material: mixed organic-inorganic / Cu-C12H4N4 / Querry
Optical constants. M. R. Querry. Optical constants, Contractor Report CRDC-CR-85034 (1985)
Comments: Copper:Tetracyanoquinodimethane (Cu:TCNQ).
wavelength (um)	n	k
0.2100	1.512	0.125
0.2300	1.556	0.102
0.2500	1.557	0.040
0.2700	1.520	0.014
0.2900	1.455	0.005
0.3100	1.383	0.064
0.3300	1.350	0.159
0.3500	1.384	0.279
0.3700	1.485	0.368
0.3900	1.627	0.374
0.4100	1.731	0.294
0.4300	1.768	0.223
0.4500	1.773	0.106
0.4700	1.699	0.058
0.4900	1.654	0.054
0.5100	1.624	0.058
0.5300	1.601	0.065
0.5500	1.580	0.077
0.5700	1.566	0.093
0.5900	1.554	0.111
0.6100	1.549	0.132
0.6300	1.551	0.155
0.6500	1.558	0.170
0.6700	1.566	0.185
0.6900	1.577	0.195
0.7100	1.587	0.202
0.7300	1.595	0.208
0.7500	1.603	0.213
0.7700	1.610	0.218
0.7900	1.617	0.221
0.8100	1.622	0.227
0.8300	1.627	0.233
0.8500	1.638	0.240
0.8700	1.648	0.245
0.8900	1.659	0.248
0.9100	1.671	0.248
0.9300	1.681	0.248
0.9500	1.692	0.244
0.9700	1.698	0.240
0.9900	1.705	0.235
1.0100	1.710	0.231
1.0300	1.713	0.226
1.0500	1.716	0.222
1.0700	1.717	0.218
1.0900	1.717	0.215
1.1100	1.714	0.215
1.1300	1.717	0.216
1.1500	1.718	0.214
1.1700	1.716	0.214
1.1900	1.714	0.215
1.2100	1.716	0.219
1.2300	1.716	0.220
1.2500	1.717	0.222
1.2700	1.718	0.224
1.2900	1.718	0.227
1.3100	1.718	0.230
1.3300	1.719	0.233
1.3500	1.720	0.238
1.3700	1.723	0.243
1.3900	1.725	0.247
1.4100	1.729	0.251
1.4300	1.733	0.256
1.4500	1.737	0.259
1.4700	1.742	0.264
1.4900	1.746	0.267
1.5100	1.752	0.270
1.5300	1.753	0.271
1.5500	1.760	0.279
1.5700	1.766	0.281
1.5900	1.769	0.288
1.6100	1.778	0.289
1.6300	1.785	0.292
1.6500	1.792	0.293
1.6700	1.799	0.296
1.6900	1.807	0.297
1.7100	1.815	0.299
1.7300	1.823	0.300
1.7500	1.831	0.300
1.7700	1.839	0.299
1.7900	1.848	0.298
1.8100	1.851	0.296
1.8300	1.863	0.298
1.8500	1.871	0.290
1.8700	1.870	0.291
1.8900	1.883	0.294
1.9100	1.892	0.290
1.9300	1.900	0.287
1.9500	1.907	0.282
1.9700	1.914	0.278
1.9900	1.920	0.274
2.0100	1.928	0.269
2.0300	1.934	0.264
2.0500	1.939	0.258
2.0700	1.945	0.253
2.0900	1.952	0.247
2.1100	1.956	0.239
2.1300	1.959	0.233
2.1500	1.964	0.227
2.1700	1.966	0.220
2.1900	1.969	0.214
2.2100	1.970	0.207
2.2300	1.973	0.201
2.2500	1.975	0.194
2.2700	1.975	0.189
2.2900	1.977	0.183
2.3100	1.978	0.176
2.3300	1.979	0.170
2.3500	1.978	0.164
2.3700	1.977	0.158
2.3900	1.976	0.152
2.4100	1.973	0.147
2.4300	1.971	0.144
2.4500	1.968	0.140
2.4700	1.967	0.138
2.4900	1.965	0.136
2.5063	1.968	0.137
2.5189	1.969	0.133
2.5316	1.969	0.130
2.5445	1.969	0.126
2.5575	1.965	0.124
2.5707	1.965	0.124
2.5840	1.967	0.121
2.5974	1.965	0.118
2.6110	1.963	0.116
2.6247	1.963	0.115
2.6385	1.963	0.111
2.6525	1.960	0.110
2.6667	1.960	0.110
2.6810	1.960	0.107
2.6954	1.959	0.105
2.7100	1.956	0.105
2.7248	1.957	0.106
2.7397	1.959	0.103
2.7548	1.959	0.100
2.7701	1.957	0.097
2.7855	1.954	0.097
2.8011	1.956	0.098
2.8169	1.958	0.095
2.8329	1.958	0.090
2.8490	1.957	0.089
2.8653	1.957	0.085
2.8818	1.954	0.081
2.8986	1.953	0.081
2.9155	1.953	0.078
2.9326	1.951	0.074
2.9499	1.948	0.073
2.9674	1.948	0.072
2.9851	1.946	0.069
3.0030	1.943	0.067
3.0211	1.941	0.066
3.0395	1.939	0.064
3.0581	1.937	0.062
3.0769	1.935	0.060
3.0960	1.932	0.060
3.1153	1.931	0.059
3.1348	1.928	0.057
3.1546	1.926	0.056
3.1746	1.923	0.056
3.1949	1.922	0.056
3.2154	1.919	0.054
3.2362	1.915	0.053
3.2573	1.908	0.057
3.2787	1.914	0.064
3.3003	1.918	0.056
3.3223	1.911	0.053
3.3445	1.908	0.055
3.3670	1.907	0.055
3.3898	1.905	0.057
3.4130	1.905	0.058
3.4364	1.905	0.055
3.4602	1.901	0.055
3.4843	1.900	0.057
3.5088	1.901	0.058
3.5336	1.900	0.055
3.5587	1.897	0.057
3.5842	1.898	0.056
3.6101	1.896	0.055
3.6364	1.893	0.057
3.6630	1.893	0.058
3.6900	1.892	0.058
3.7175	1.892	0.058
3.7453	1.890	0.058
3.7736	1.891	0.059
3.8023	1.890	0.057
3.8314	1.887	0.058
3.8610	1.888	0.059
3.8911	1.886	0.057
3.9216	1.884	0.059
3.9526	1.885	0.058
3.9841	1.883	0.058
4.0161	1.883	0.058
4.0486	1.881	0.057
4.0816	1.878	0.057
4.1152	1.876	0.059
4.1494	1.876	0.058
4.1841	1.873	0.056
4.2194	1.868	0.058
4.2553	1.866	0.060
4.2918	1.864	0.061
4.3290	1.860	0.060
4.3668	1.852	0.062
4.4053	1.846	0.067
4.4444	1.833	0.066
4.4843	1.789	0.098
4.5249	1.772	0.177
4.5662	1.959	0.158
4.6083	1.922	0.125
4.6512	1.930	0.094
4.6948	1.916	0.082
4.7393	1.912	0.076
4.7847	1.903	0.071
4.8309	1.897	0.069
4.8780	1.893	0.074
4.9261	1.891	0.072
4.9751	1.886	0.076
5.0251	1.895	0.081
5.0761	1.894	0.074
5.1282	1.891	0.072
5.1813	1.889	0.071
5.2356	1.888	0.072
5.2910	1.888	0.070
5.3476	1.885	0.070
5.4054	1.884	0.069
5.4645	1.882	0.069
5.5249	1.879	0.071
5.5866	1.877	0.069
5.6497	1.874	0.068
5.7143	1.869	0.070
5.7803	1.866	0.073
5.8480	1.864	0.076
5.9172	1.859	0.081
5.9880	1.857	0.085
6.0606	1.856	0.087
6.1350	1.850	0.088
6.2112	1.832	0.097
6.2893	1.817	0.144
6.3694	1.899	0.157
6.4516	1.872	0.140
6.5359	1.901	0.108
6.6225	1.859	0.228
6.7114	1.947	0.087
6.8027	1.916	0.084
6.8966	1.891	0.083
6.9930	1.879	0.093
7.0922	1.870	0.101
7.1942	1.854	0.102
7.2993	1.811	0.118
7.4074	1.889	0.264
7.5188	1.955	0.232
7.6336	1.988	0.156
7.7519	1.972	0.128
7.8740	1.962	0.123
8.0000	1.957	0.109
8.1301	1.954	0.122
8.2645	1.936	0.100
8.4034	1.916	0.169
8.5470	2.028	0.139
8.6957	2.009	0.091
8.8496	1.992	0.079
9.0090	1.995	0.069
9.1743	1.980	0.053
9.3458	1.968	0.044
9.5238	1.950	0.040
9.7087	1.937	0.046
9.9010	1.934	0.062
10.1010	1.934	0.085
10.3093	1.937	0.065
10.5263	1.939	0.063
10.7527	1.934	0.064
10.9890	1.929	0.062
11.2360	1.919	0.063
11.4943	1.857	0.086
11.7647	1.989	0.084
12.0482	1.919	0.129
12.3457	1.970	0.074
12.6582	1.956	0.070
12.9870	1.954	0.078
13.3333	1.947	0.077
13.6986	1.950	0.087
14.0845	1.962	0.084
14.4928	1.966	0.073
14.9254	1.960	0.065
15.3846	1.951	0.069
15.8730	1.960	0.086
16.3934	1.973	0.064
16.9492	1.960	0.055
17.5439	1.955	0.067
18.1818	1.956	0.066
18.8679	1.951	0.064
19.6078	1.940	0.059
20.4082	1.900	0.058
21.2766	2.072	0.202
22.2222	2.001	0.061
23.2558	1.983	0.059
24.3902	1.975	0.065
25.6410	1.974	0.070
27.0270	1.974	0.077
28.5714	1.986	0.077
30.3030	1.995	0.074
32.2581	1.999	0.061
34.4828	1.992	0.055
37.0370	1.977	0.046
40.0000	1.949	0.057
43.4783	1.923	0.172
47.6190	2.084	0.067
52.6316	2.024	0.080
