Material: immersion oils / Olympus IMMOIL-F30CC / Wang
Optical constants. K. Wang, W. Wen, Y. Wang, K. Wang, J. He, J. Wang, P. Zhai, Y. Yang, P. Qiu. Order-of-magnitude multiphoton signal enhancement based on characterization of absorption spectra of immersion oils at the 1700-nm window, Opt. Express 25, 5909-5916 (2017)
Comments: 22 °C.
Specs: {"temperature": "22 °C"}
wavelength (um)	k
1.200	9.67296E-06
1.202	8.56947E-06
1.204	7.66260E-06
1.206	6.89461E-06
1.208	6.49836E-06
1.210	6.14149E-06
1.212	5.50206E-06
1.214	5.25716E-06
1.216	4.97243E-06
1.218	4.66812E-06
1.220	4.40201E-06
1.222	3.90725E-06
1.224	3.72303E-06
1.226	3.56062E-06
1.228	3.24200E-06
1.230	2.88111E-06
1.232	2.85001E-06
1.234	2.58518E-06
1.236	2.29498E-06
1.238	2.13989E-06
1.240	1.97293E-06
1.242	1.71825E-06
1.244	1.62598E-06
1.246	1.43455E-06
1.248	1.55881E-06
1.250	1.28458E-06
1.252	1.23114E-06
1.254	1.21016E-06
1.256	9.03342E-07
1.258	1.03732E-06
1.260	9.48532E-07
1.262	1.06372E-06
1.264	8.58903E-07
1.266	8.29333E-07
1.268	7.29941E-07
1.270	4.63477E-07
1.272	8.97338E-07
1.274	6.69221E-07
1.276	6.93626E-07
1.278	6.02979E-07
1.280	8.36569E-07
1.282	5.08969E-07
1.284	7.09725E-07
1.286	7.04997E-07
1.288	6.13642E-07
1.290	4.90485E-07
1.292	6.19455E-07
1.294	7.31110E-07
1.296	6.01571E-07
1.298	7.55165E-07
1.300	7.80122E-07
1.302	7.57492E-07
1.304	6.13275E-07
1.306	9.87110E-07
1.308	7.03006E-07
1.310	6.22143E-07
1.312	6.17037E-07
1.314	9.08877E-07
1.316	8.54024E-07
1.318	8.02985E-07
1.320	7.86031E-07
1.322	8.05422E-07
1.324	9.01676E-07
1.326	7.73460E-07
1.328	8.29368E-07
1.330	9.66725E-07
1.332	1.03930E-06
1.334	1.11825E-06
1.336	1.23422E-06
1.338	1.09509E-06
1.340	1.54075E-06
1.342	1.61471E-06
1.344	1.81006E-06
1.346	2.10870E-06
1.348	2.74580E-06
1.350	3.01168E-06
1.352	3.85846E-06
1.354	4.56711E-06
1.356	5.69404E-06
1.358	6.48830E-06
1.360	7.11668E-06
1.362	7.71990E-06
1.364	8.39770E-06
1.366	8.66862E-06
1.368	9.18479E-06
1.370	9.53706E-06
1.372	9.98672E-06
1.374	1.08993E-05
1.376	1.13522E-05
1.378	1.19936E-05
1.380	1.25441E-05
1.382	1.27332E-05
1.384	1.29440E-05
1.386	1.29288E-05
1.388	1.26444E-05
1.390	1.27114E-05
1.392	1.27871E-05
1.394	1.24670E-05
1.396	1.20394E-05
1.398	1.17023E-05
1.400	1.13171E-05
1.402	1.08688E-05
1.404	1.04191E-05
1.406	1.02729E-05
1.408	1.00489E-05
1.410	1.01148E-05
1.412	1.01312E-05
1.414	9.74400E-06
1.416	9.15246E-06
1.418	8.37290E-06
1.420	7.68005E-06
1.422	7.39552E-06
1.424	7.19503E-06
1.426	7.10278E-06
1.428	7.20649E-06
1.430	7.36725E-06
1.432	7.53721E-06
1.434	7.59155E-06
1.436	7.46399E-06
1.438	7.45241E-06
1.440	7.13951E-06
1.442	6.83673E-06
1.444	6.87046E-06
1.446	6.55099E-06
1.448	6.38767E-06
1.450	6.23484E-06
1.452	5.99732E-06
1.454	5.71702E-06
1.456	5.46917E-06
1.458	5.31633E-06
1.460	5.31480E-06
1.462	5.26844E-06
1.464	5.26668E-06
1.466	5.20003E-06
1.468	5.10853E-06
1.470	5.16485E-06
1.472	5.01234E-06
1.474	4.87956E-06
1.476	4.76673E-06
1.478	4.62429E-06
1.480	4.51748E-06
1.482	4.56887E-06
1.484	4.51162E-06
1.486	4.37698E-06
1.488	4.32154E-06
1.490	4.25454E-06
1.492	4.13951E-06
1.494	4.13816E-06
1.496	3.94953E-06
1.498	3.81308E-06
1.500	3.61202E-06
1.502	3.19025E-06
1.504	2.95788E-06
1.506	2.90897E-06
1.508	2.76319E-06
1.510	2.68153E-06
1.512	2.51194E-06
1.514	2.44816E-06
1.516	2.46768E-06
1.518	2.43844E-06
1.520	2.35348E-06
1.522	2.14280E-06
1.524	1.99196E-06
1.526	1.90605E-06
1.528	1.96217E-06
1.530	1.98349E-06
1.532	1.92061E-06
1.534	1.84573E-06
1.536	1.77785E-06
1.538	1.74957E-06
1.540	1.78003E-06
1.542	1.78234E-06
1.544	1.82483E-06
1.546	1.96166E-06
1.548	1.95003E-06
1.550	1.78221E-06
1.552	1.86973E-06
1.554	2.01460E-06
1.556	2.07898E-06
1.558	2.08165E-06
1.560	2.04137E-06
1.562	2.04163E-06
1.564	2.15414E-06
1.566	2.23104E-06
1.568	2.26733E-06
1.570	2.34456E-06
1.572	2.45313E-06
1.574	2.55007E-06
1.576	2.61100E-06
1.578	2.65286E-06
1.580	2.82998E-06
1.582	3.01473E-06
1.584	3.17572E-06
1.586	3.21608E-06
1.588	3.43837E-06
1.590	3.61504E-06
1.592	3.62199E-06
1.594	3.70696E-06
1.596	3.92600E-06
1.598	4.03100E-06
1.600	4.15573E-06
1.602	4.44470E-06
1.604	4.64860E-06
1.606	4.89479E-06
1.608	5.14888E-06
1.610	5.27571E-06
1.612	5.39297E-06
1.614	5.59938E-06
1.616	5.89991E-06
1.618	6.33958E-06
1.620	6.62445E-06
1.622	7.08581E-06
1.624	7.63772E-06
1.626	8.22059E-06
1.628	8.73039E-06
1.630	9.17668E-06
1.632	9.88820E-06
1.634	1.06512E-05
1.636	1.09141E-05
1.638	1.12601E-05
1.640	1.17772E-05
1.642	1.21100E-05
1.644	1.23332E-05
1.646	1.22777E-05
1.648	1.20661E-05
1.650	1.22118E-05
1.652	1.26076E-05
1.654	1.33653E-05
1.656	1.45244E-05
1.658	1.66509E-05
1.660	1.94186E-05
1.662	2.30177E-05
1.664	2.73242E-05
1.666	3.17097E-05
1.668	3.60954E-05
1.670	4.13866E-05
1.672	4.76401E-05
1.674	5.38956E-05
1.676	5.97335E-05
1.678	6.63845E-05
1.680	7.39876E-05
1.682	8.37558E-05
1.684	9.31148E-05
1.686	1.02761E-04
1.688	1.15453E-04
1.690	1.21206E-04
1.692	1.24762E-04
1.694	1.21273E-04
1.696	1.27776E-04
1.698	1.33164E-04
1.700	1.32213E-04
1.702	1.34320E-04
1.704	1.28210E-04
1.706	1.21876E-04
1.708	1.11136E-04
1.710	1.03814E-04
1.712	1.04417E-04
1.714	1.01081E-04
1.716	9.77404E-05
1.718	9.62672E-05
1.720	9.43018E-05
1.722	9.32651E-05
1.724	8.93483E-05
1.726	8.72092E-05
1.728	8.57667E-05
1.730	8.38768E-05
1.732	8.22574E-05
1.734	8.07320E-05
1.736	7.77448E-05
1.738	7.91561E-05
1.740	7.53467E-05
1.742	7.34864E-05
1.744	7.04444E-05
1.746	6.80190E-05
1.748	6.71360E-05
1.750	6.38245E-05
1.752	6.21292E-05
1.754	6.05316E-05
1.756	5.82357E-05
1.758	5.76175E-05
1.760	5.76319E-05
1.762	5.71674E-05
1.764	5.88027E-05
1.766	5.98913E-05
1.768	5.99024E-05
1.770	5.96081E-05
1.772	5.83632E-05
1.774	5.65978E-05
1.776	5.51105E-05
1.778	5.11301E-05
1.780	4.81543E-05
1.782	4.45159E-05
1.784	4.14740E-05
1.786	3.86135E-05
1.788	3.61886E-05
1.790	3.47969E-05
1.792	3.35168E-05
1.794	3.20996E-05
1.796	3.11564E-05
1.798	3.08754E-05
1.800	2.99011E-05
1.802	2.97004E-05
1.804	2.94855E-05
1.806	2.91899E-05
1.808	2.87005E-05
1.810	2.86217E-05
1.812	2.84347E-05
1.814	2.84052E-05
1.816	2.80843E-05
1.818	2.83929E-05
1.820	2.77793E-05
1.822	2.74649E-05
1.824	2.77679E-05
1.826	2.74861E-05
1.828	2.75860E-05
1.830	2.75156E-05
1.832	2.78619E-05
1.834	2.79734E-05
1.836	2.77881E-05
1.838	2.73692E-05
1.840	2.69467E-05
1.842	2.61773E-05
1.844	2.65183E-05
1.846	2.67020E-05
1.848	2.55768E-05
1.850	2.60169E-05
1.852	2.62798E-05
1.854	2.58807E-05
1.856	2.59794E-05
1.858	2.63791E-05
1.860	2.56804E-05
1.862	2.56568E-05
1.864	2.55335E-05
1.866	2.55183E-05
1.868	2.59107E-05
1.870	2.57785E-05
1.872	2.56032E-05
1.874	2.57479E-05
1.876	2.56607E-05
1.878	2.57942E-05
1.880	2.58016E-05
1.882	2.55789E-05
1.884	2.50913E-05
1.886	2.48183E-05
1.888	2.47207E-05
1.890	2.41119E-05
1.892	2.36290E-05
1.894	2.40300E-05
1.896	2.41566E-05
1.898	2.37562E-05
1.900	2.36884E-05
