Material: glass / schott / N-SF57HTultra
Optical constants. SCHOTT Zemax catalog 2017-01-20b (obtained from http://www.schott.com)See also SCHOTT glass data sheets
Comments: 
Specs: {"n_is_absolute": false, "λ_is_vacuum": false, "temperature": "20.0 °C", "coefficients_of_thermal_dispersion": "-4.51e-06 8.73e-09 -1.64e-11 1.07e-06 1.57e-09 0.295", "n_d": 1.84666, "V_d": 23.78, "glass_code": 847238.353, "glass_status": "standard", "density": "3.533 g/cm3", "coefficient_of_thermal_expansion_1": "8.46e-06 K-1", "coefficient_of_thermal_expansion_2": "9.88e-06 K-1", "ΔP_gF": 0.0178, "climatic_resistance": 1.0, "stain_resistance": 0.0, "acid_resistance": 1.0, "alkali_resistance": 1.0, "phosphate_resistance": 1.0}
Dispersion formula 2, range 0.37 2.5 um, coefficients 0 1.87543831 0.0141749518 0.37375749 0.0640509927 2.30001797 177.389795
wavelength (um)	k
0.370	8.1356E-06
0.380	2.6267E-06
0.390	1.0978E-06
0.400	5.9436E-07
0.405	4.7277E-07
0.420	2.8999E-07
0.436	2.0288E-07
0.460	1.4131E-07
0.500	8.6670E-08
0.546	4.7570E-08
0.580	3.5415E-08
0.620	3.3838E-08
0.660	3.1751E-08
0.700	2.6900E-08
1.060	6.7549E-09
1.530	9.8390E-08
1.970	7.0965E-07
2.325	3.2797E-06
2.500	4.2801E-06
