Material: glass / hikari / E-LAK04
Optical constants. NIKON Zemax catalog 2017-11 (obtained from http://www.nikon.com)See also HIKARI glass data sheets
Specs: {"n_is_absolute": false, "λ_is_vacuum": false, "temperature": "23.0 °C", "n_d": 1.651, "V_d": 56.171366, "glass_status": "preferred", "density": "3.26 g/cm3", "coefficient_of_thermal_expansion_1": "8.1e-06 K-1", "ΔP_gF": -0.0012}
Dispersion formula 3, range 0.4 0.7 um, coefficients 2.6768086 -0.0102173269 2 0.0177389501 -2 2.82247162e-05 -4 4.32740016e-05 -6 -2.15847266e-06 -8
wavelength (um)	k
0.400	-0.0000E+00
0.700	-0.0000E+00
