Material: glass / hikari / E-SK18
Optical constants. NIKON Zemax catalog 2017-11 (obtained from http://www.nikon.com)See also HIKARI glass data sheets
Specs: {"n_is_absolute": false, "λ_is_vacuum": false, "temperature": "23.0 °C", "n_d": 1.63854, "V_d": 55.479598, "glass_status": "preferred", "density": "3.67 g/cm3", "coefficient_of_thermal_expansion_1": "8.1e-06 K-1", "ΔP_gF": -0.0021}
Dispersion formula 3, range 0.4 0.7 um, coefficients 2.65253732 -0.0207076891 2 0.00823565189 -2 0.00259890034 -4 -0.00030272324 -6 1.591967e-05 -8
wavelength (um)	k
0.400	-0.0000E+00
0.700	-0.0000E+00
