Material: mixed organic / PTB7-PC71BM / Stelling
Optical constants. C. Stelling, C. R. Singh, M. Karg, T. A. F. König, M. Thelakkat, M. Retsch. Plasmonic nanomeshes: their ambivalent role as transparent electrodes in organic solar cells, Sci. Rep. 7, 42530 (2017) - see Supplementary information (Numerical data kindly provided by Tobias König)
Comments: Isotropic PTB7:PC71BM thin film (thickness 100 nm) on silicon substrate sandwiched by an silicon oxide (SiO2) layer (thickness 300 nm).
wavelength (um)	n	k
0.30158	2.010731	0.354259
0.30478	2.005071	0.336396
0.30798	1.998926	0.320381
0.31118	1.992479	0.306008
0.31438	1.985855	0.293078
0.31758	1.979126	0.281404
0.32078	1.972321	0.270824
0.32398	1.965425	0.261205
0.32718	1.958397	0.252454
0.33038	1.951169	0.244526
0.33358	1.943670	0.237431
0.33678	1.935844	0.231240
0.33998	1.927673	0.226084
0.34318	1.919207	0.222135
0.34637	1.910588	0.219585
0.34957	1.902065	0.218602
0.35277	1.893986	0.219282
0.35597	1.886775	0.221598
0.35917	1.880879	0.225364
0.36237	1.876698	0.230221
0.36556	1.874514	0.235655
0.36876	1.874421	0.241049
0.37196	1.876289	0.245761
0.37516	1.879763	0.249217
0.37835	1.884293	0.250997
0.38155	1.889207	0.250913
0.38475	1.893809	0.249045
0.38794	1.897499	0.245746
0.39114	1.899897	0.241583
0.39434	1.900935	0.237211
0.39753	1.900872	0.233191
0.40073	1.900201	0.229822
0.40392	1.899447	0.227042
0.40712	1.898942	0.224476
0.41032	1.898669	0.221623
0.41351	1.898252	0.218109
0.41671	1.897117	0.213877
0.41990	1.894722	0.209244
0.42309	1.890765	0.204804
0.42629	1.885285	0.201245
0.42948	1.878642	0.199159
0.43268	1.871407	0.198905
0.43587	1.864214	0.200568
0.43906	1.857636	0.203989
0.44226	1.852106	0.208843
0.44545	1.847886	0.214726
0.44864	1.845085	0.221225
0.45183	1.843693	0.227968
0.45503	1.843615	0.234643
0.45822	1.844707	0.241003
0.46141	1.846798	0.246862
0.46460	1.849707	0.252087
0.46779	1.853248	0.256589
0.47098	1.857242	0.260318
0.47417	1.861514	0.263258
0.47736	1.865901	0.265420
0.48055	1.870254	0.266844
0.48374	1.874438	0.267589
0.48693	1.878335	0.267737
0.49012	1.881850	0.267384
0.49331	1.884906	0.266639
0.49650	1.887453	0.265620
0.49969	1.889461	0.264449
0.50287	1.890927	0.263249
0.50606	1.891870	0.262138
0.50925	1.892334	0.261227
0.51243	1.892380	0.260613
0.51562	1.892089	0.260378
0.51881	1.891555	0.260584
0.52199	1.890883	0.261270
0.52518	1.890181	0.262450
0.52836	1.889556	0.264115
0.53155	1.889108	0.266232
0.53473	1.888926	0.268744
0.53791	1.889080	0.271577
0.54110	1.889619	0.274643
0.54428	1.890565	0.277847
0.54746	1.891916	0.281092
0.55065	1.893643	0.284288
0.55383	1.895691	0.287359
0.55701	1.897987	0.290248
0.56019	1.900445	0.292923
0.56337	1.902970	0.295383
0.56655	1.905470	0.297657
0.56973	1.907866	0.299803
0.57291	1.910097	0.301907
0.57609	1.912132	0.304076
0.57927	1.913973	0.306429
0.58245	1.915664	0.309089
0.58562	1.917287	0.312166
0.58880	1.918964	0.315750
0.59198	1.920848	0.319898
0.59515	1.923115	0.324620
0.59833	1.925950	0.329873
0.60151	1.929530	0.335561
0.60468	1.934009	0.341529
0.60786	1.939497	0.347577
0.61103	1.946049	0.353468
0.61420	1.953648	0.358945
0.61738	1.962202	0.363754
0.62055	1.971541	0.367669
0.62372	1.981424	0.370513
0.62689	1.991554	0.372185
0.63006	2.001599	0.372677
0.63323	2.011222	0.372091
0.63640	2.020115	0.370645
0.63957	2.028040	0.368667
0.64274	2.034869	0.366578
0.64591	2.040624	0.364856
0.64908	2.045501	0.363989
0.65225	2.049884	0.364411
0.65541	2.054333	0.366426
0.65858	2.059541	0.370145
0.66175	2.066261	0.375423
0.66491	2.075212	0.381836
0.66808	2.086969	0.388698
0.67124	2.101865	0.395116
0.67441	2.119924	0.400091
0.67757	2.140836	0.402639
0.68073	2.163985	0.401904
0.68389	2.188516	0.397257
0.68706	2.213432	0.388353
0.69022	2.237692	0.375149
0.69338	2.260309	0.357886
0.69654	2.280422	0.337046
0.69970	2.297356	0.313296
0.70285	2.310641	0.287416
0.70601	2.320029	0.260235
0.70917	2.325481	0.232574
0.71233	2.327139	0.205196
0.71548	2.325299	0.178765
0.71864	2.320369	0.153827
0.72179	2.312833	0.130792
0.72495	2.303207	0.109937
0.72810	2.292012	0.091407
0.73125	2.279740	0.075235
0.73441	2.266839	0.061359
0.73756	2.253691	0.049644
0.74071	2.240613	0.039903
0.74386	2.227852	0.031919
0.74701	2.215586	0.025461
0.75016	2.203935	0.020301
0.75331	2.192968	0.016222
0.75646	2.182714	0.013029
0.75960	2.173172	0.010548
0.76275	2.164315	0.008633
0.76590	2.156105	0.007161
0.76904	2.148496	0.006031
0.77219	2.141437	0.005163
0.77533	2.134875	0.004495
0.77847	2.128763	0.003977
0.78162	2.123054	0.003572
0.78476	2.117707	0.003252
0.78790	2.112684	0.002997
0.79104	2.107952	0.002789
0.79418	2.103483	0.002618
0.79732	2.099250	0.002475
0.80046	2.095231	0.002353
0.80359	2.091407	0.002248
0.80673	2.087760	0.002156
0.80987	2.084276	0.002075
0.81300	2.080941	0.002002
0.81614	2.077744	0.001936
0.81927	2.074674	0.001876
0.82240	2.071723	0.001821
0.82554	2.068881	0.001769
0.82867	2.066141	0.001722
0.83180	2.063497	0.001677
0.83493	2.060942	0.001635
0.83806	2.058471	0.001595
0.84119	2.056079	0.001557
0.84431	2.053762	0.001522
0.84744	2.051515	0.001487
0.85057	2.049334	0.001454
0.85369	2.047215	0.001423
0.85682	2.045156	0.001393
0.85994	2.043154	0.001364
0.86306	2.041205	0.001335
0.86618	2.039307	0.001308
0.86931	2.037457	0.001282
0.87243	2.035654	0.001257
0.87555	2.033894	0.001232
0.87866	2.032177	0.001208
0.88178	2.030500	0.001185
0.88490	2.028862	0.001162
0.88802	2.027260	0.001140
0.89113	2.025693	0.001119
0.89425	2.024161	0.001098
0.89736	2.022661	0.001078
0.90047	2.021192	0.001059
0.90359	2.019753	0.001039
0.90670	2.018343	0.001021
0.90981	2.016961	0.001002
0.91292	2.015606	0.000985
0.91602	2.014276	0.000967
0.91913	2.012971	0.000950
0.92224	2.011690	0.000934
0.92535	2.010432	0.000918
0.92845	2.009197	0.000902
0.93155	2.007982	0.000887
0.93466	2.006789	0.000872
0.93776	2.005616	0.000857
0.94086	2.004462	0.000842
0.94396	2.003328	0.000828
0.94706	2.002211	0.000815
0.95016	2.001112	0.000801
0.95326	2.000030	0.000788
0.95635	1.998965	0.000775
0.95945	1.997915	0.000763
0.96255	1.996882	0.000750
0.96564	1.995863	0.000738
0.96873	1.994859	0.000727
0.97182	1.993870	0.000715
0.97492	1.992894	0.000704
0.97801	1.991931	0.000693
0.98109	1.990982	0.000682
0.98418	1.990045	0.000671
0.98727	1.989121	0.000661
0.99036	1.988209	0.000651
0.99344	1.987308	0.000641
0.99653	1.986418	0.000631
0.99961	1.985540	0.000622
1.01567	1.981128	0.000575
1.02248	1.979335	0.000556
1.02929	1.977584	0.000539
1.03609	1.975873	0.000522
1.04290	1.974201	0.000505
1.04970	1.972564	0.000490
1.05651	1.970962	0.000475
1.06331	1.969392	0.000461
1.07011	1.967852	0.000447
1.07692	1.966342	0.000434
1.08372	1.964860	0.000421
1.09052	1.963404	0.000409
1.09733	1.961973	0.000397
1.10413	1.960566	0.000386
1.11093	1.959182	0.000375
1.11773	1.957820	0.000365
1.12453	1.956479	0.000354
1.13134	1.955157	0.000345
1.13814	1.953855	0.000335
1.14494	1.952570	0.000326
1.15175	1.951303	0.000318
1.15855	1.950052	0.000309
1.16535	1.948816	0.000301
1.17216	1.947596	0.000294
1.17896	1.946391	0.000286
1.18577	1.945198	0.000279
1.19258	1.944020	0.000272
1.19938	1.942853	0.000265
1.20619	1.941699	0.000259
1.21300	1.940556	0.000252
1.21981	1.939424	0.000246
1.22662	1.938303	0.000240
1.23343	1.937191	0.000235
1.24025	1.936090	0.000229
1.24706	1.934997	0.000224
1.25388	1.933913	0.000219
1.26069	1.932838	0.000214
1.26751	1.931771	0.000209
1.27433	1.930711	0.000204
1.28115	1.929659	0.000199
1.28798	1.928614	0.000195
1.29480	1.927575	0.000191
1.30163	1.926543	0.000187
1.30845	1.925516	0.000183
1.31528	1.924496	0.000179
1.32212	1.923481	0.000175
1.32895	1.922472	0.000171
1.33578	1.921467	0.000168
1.34262	1.920467	0.000164
1.34946	1.919472	0.000161
1.35630	1.918481	0.000158
1.36315	1.917494	0.000154
1.36999	1.916511	0.000151
1.37684	1.915532	0.000148
1.38369	1.914556	0.000145
1.39055	1.913583	0.000143
1.39740	1.912614	0.000140
1.40426	1.911647	0.000137
1.41112	1.910683	0.000135
1.41798	1.909722	0.000132
1.42485	1.908763	0.000130
1.43172	1.907806	0.000127
1.43859	1.906852	0.000125
1.44547	1.905899	0.000123
1.45235	1.904948	0.000120
1.45923	1.903999	0.000118
1.46611	1.903051	0.000116
1.47300	1.902105	0.000114
1.47989	1.901159	0.000112
1.48678	1.900215	0.000110
1.49368	1.899272	0.000108
1.50058	1.898330	0.000106
1.50749	1.897389	0.000105
1.51440	1.896448	0.000103
1.52131	1.895507	0.000101
1.52822	1.894567	0.000099
1.53514	1.893628	0.000098
1.54206	1.892688	0.000096
1.54899	1.891749	0.000095
1.55592	1.890810	0.000093
1.56286	1.889870	0.000092
1.56980	1.888931	0.000090
1.57674	1.887991	0.000089
1.58369	1.887050	0.000087
1.59064	1.886110	0.000086
1.59759	1.885168	0.000085
1.60455	1.884226	0.000083
1.61152	1.883283	0.000082
1.61849	1.882340	0.000081
1.62546	1.881395	0.000080
1.63244	1.880450	0.000078
1.63942	1.879503	0.000077
1.64641	1.878556	0.000076
1.65340	1.877607	0.000075
1.66039	1.876657	0.000074
1.66740	1.875706	0.000073
1.67440	1.874753	0.000072
1.68141	1.873798	0.000071
