Material: alloys / Cu-Zn / Querry-Cu70Zn30
Optical constants. M. R. Querry. Optical constants, Contractor Report CRDC-CR-85034 (1985)
Comments: 70% Cu, 30% Zn.
wavelength (um)	n	k
0.2100	1.140	1.314
0.2300	1.227	1.442
0.2500	1.301	1.512
0.2700	1.323	1.586
0.2900	1.358	1.688
0.3100	1.419	1.764
0.3300	1.473	1.807
0.3500	1.504	1.815
0.3700	1.497	1.818
0.3900	1.471	1.813
0.4100	1.405	1.794
0.4300	1.278	1.784
0.4500	1.094	1.829
0.4700	0.900	1.957
0.4900	0.745	2.145
0.5100	0.639	2.358
0.5300	0.573	2.568
0.5500	0.527	2.765
0.5700	0.484	2.958
0.5900	0.460	3.159
0.6100	0.452	3.345
0.6300	0.445	3.522
0.6500	0.444	3.695
0.6700	0.444	3.860
0.6900	0.445	4.025
0.7100	0.448	4.186
0.7300	0.452	4.346
0.7500	0.457	4.501
0.7700	0.460	4.657
0.7900	0.469	4.814
0.8100	0.478	4.965
0.8300	0.483	5.115
0.8500	0.490	5.269
0.8700	0.500	5.423
0.8900	0.515	5.575
0.9100	0.531	5.724
0.9300	0.546	5.870
0.9500	0.563	6.016
0.9700	0.580	6.158
0.9900	0.596	6.298
1.0100	0.610	6.437
1.0300	0.622	6.578
1.0500	0.635	6.720
1.0700	0.650	6.862
1.0900	0.667	7.004
1.1100	0.684	7.144
1.1300	0.702	7.283
1.1500	0.718	7.419
1.1700	0.733	7.557
1.1900	0.752	7.694
1.2100	0.766	7.826
1.2300	0.775	7.967
1.2500	0.793	8.112
1.2700	0.813	8.251
1.2900	0.834	8.390
1.3100	0.856	8.528
1.3300	0.878	8.662
1.3500	0.898	8.795
1.3700	0.917	8.928
1.3900	0.934	9.061
1.4100	0.950	9.196
1.4300	0.968	9.335
1.4500	0.989	9.474
1.4700	1.013	9.609
1.4900	1.034	9.742
1.5100	1.055	9.878
1.5300	1.079	10.014
1.5500	1.102	10.146
1.5700	1.124	10.280
1.5900	1.146	10.415
1.6100	1.171	10.552
1.6300	1.199	10.686
1.6500	1.228	10.814
1.6700	1.252	10.943
1.6900	1.276	11.073
1.7100	1.302	11.203
1.7300	1.326	11.328
1.7500	1.342	11.456
1.7700	1.360	11.593
1.7900	1.386	11.730
1.8100	1.410	11.863
1.8400	1.452	12.068
1.8600	1.484	12.202
1.8800	1.517	12.332
1.9000	1.547	12.459
1.9200	1.576	12.588
1.9400	1.604	12.718
1.9600	1.633	12.855
1.9800	1.676	12.986
2.0000	1.711	13.101
2.0200	1.733	13.226
2.0400	1.767	13.363
2.0600	1.809	13.485
2.0800	1.842	13.607
2.1000	1.878	13.725
2.1200	1.910	13.842
2.1400	1.938	13.961
2.1600	1.967	14.084
2.1800	1.999	14.206
2.2000	2.028	14.324
2.2200	2.057	14.447
2.2400	2.093	14.570
2.2600	2.127	14.686
2.2800	2.159	14.797
2.3000	2.182	14.909
2.3200	2.201	15.026
2.3400	2.220	15.151
2.3600	2.248	15.283
2.3800	2.287	15.411
2.4000	2.324	15.522
2.4200	2.349	15.636
2.4400	2.377	15.755
2.4600	2.403	15.872
2.4800	2.427	15.995
2.5000	2.456	16.114
2.5126	2.476	16.192
2.5253	2.497	16.268
2.5381	2.517	16.343
2.5510	2.537	16.419
2.5641	2.556	16.495
2.5773	2.574	16.571
2.5907	2.591	16.649
2.6042	2.609	16.729
2.6178	2.627	16.810
2.6316	2.645	16.892
2.6455	2.663	16.975
2.6596	2.681	17.059
2.6738	2.699	17.146
2.6882	2.718	17.234
2.7027	2.738	17.323
2.7174	2.758	17.413
2.7322	2.780	17.504
2.7473	2.802	17.597
2.7624	2.826	17.691
2.7778	2.849	17.784
2.7933	2.874	17.879
2.8090	2.898	17.974
2.8249	2.924	18.072
2.8409	2.950	18.169
2.8571	2.977	18.268
2.8736	3.004	18.368
2.8902	3.033	18.468
2.9070	3.062	18.568
2.9240	3.091	18.669
2.9412	3.119	18.772
2.9586	3.149	18.877
2.9762	3.180	18.981
2.9940	3.211	19.087
3.0120	3.242	19.193
3.0303	3.274	19.302
3.0488	3.307	19.410
3.0675	3.339	19.521
3.0864	3.373	19.633
3.1056	3.408	19.746
3.1250	3.444	19.860
3.1447	3.480	19.974
3.1646	3.516	20.090
3.1847	3.553	20.207
3.2051	3.591	20.326
3.2258	3.630	20.445
3.2468	3.670	20.565
3.2680	3.710	20.685
3.2895	3.750	20.808
3.3113	3.791	20.931
3.3333	3.832	21.055
3.3557	3.873	21.181
3.3784	3.915	21.308
3.4014	3.957	21.436
3.4247	3.999	21.566
3.4483	4.041	21.698
3.4722	4.083	21.832
3.4965	4.127	21.968
3.5211	4.171	22.106
3.5461	4.216	22.246
3.5714	4.261	22.390
3.5971	4.310	22.534
3.6232	4.359	22.679
3.6496	4.409	22.828
3.6765	4.461	22.977
3.7037	4.513	23.126
3.7313	4.564	23.279
3.7594	4.618	23.433
3.7879	4.672	23.589
3.8168	4.728	23.748
3.8462	4.785	23.907
3.8760	4.841	24.069
3.9063	4.898	24.233
3.9370	4.957	24.400
3.9683	5.017	24.568
4.0000	5.077	24.739
4.0323	5.137	24.913
4.0650	5.200	25.089
4.0984	5.260	25.269
4.1322	5.325	25.454
4.1667	5.392	25.640
4.2017	5.459	25.831
4.2373	5.531	26.026
4.2735	5.607	26.223
4.3103	5.687	26.420
4.3478	5.766	26.616
4.3860	5.847	26.815
4.4248	5.928	27.017
4.4643	6.012	27.222
4.5045	6.097	27.428
4.5455	6.183	27.637
4.5872	6.271	27.848
4.6296	6.359	28.060
4.6729	6.446	28.276
4.7170	6.534	28.496
4.7619	6.624	28.721
4.8077	6.717	28.948
4.8544	6.808	29.181
4.9020	6.906	29.417
4.9505	7.002	29.654
5.0000	7.097	29.898
5.0505	7.195	30.148
5.1020	7.296	30.402
5.1546	7.400	30.662
5.2083	7.506	30.926
5.2632	7.615	31.195
5.3191	7.727	31.468
5.3763	7.841	31.745
5.4348	7.958	32.026
5.4945	8.072	32.313
5.5556	8.190	32.612
5.6180	8.317	32.914
5.6818	8.445	33.217
5.7471	8.569	33.528
5.8140	8.698	33.850
5.8824	8.834	34.181
5.9524	8.973	34.514
6.0241	9.111	34.859
6.0976	9.258	35.216
6.1728	9.411	35.581
6.2500	9.573	35.952
6.3291	9.738	36.332
6.4103	9.916	36.724
6.4935	10.103	37.120
6.5789	10.300	37.524
6.6667	10.511	37.931
6.7568	10.728	38.334
6.8493	10.946	38.744
6.9444	11.174	39.159
7.0423	11.407	39.573
7.1429	11.644	39.989
7.2464	11.880	40.409
7.3529	12.118	40.834
7.4627	12.352	41.264
7.5758	12.586	41.707
7.6923	12.821	42.154
7.8125	13.047	42.611
7.9365	13.266	43.088
8.0645	13.484	43.592
8.1967	13.712	44.116
8.3333	13.938	44.657
8.4746	14.164	45.229
8.6207	14.403	45.830
8.7719	14.652	46.456
8.9286	15.051	47.114
9.0909	15.194	47.798
9.2593	15.493	48.504
9.4340	15.806	49.236
9.6154	16.137	49.997
9.8039	16.493	50.790
10.0000	16.878	51.601
10.2041	17.276	52.438
10.4167	17.706	53.306
10.6383	18.162	54.190
10.8696	18.636	55.097
11.1111	19.130	56.031
11.3636	19.646	56.993
11.6279	20.182	57.982
11.9048	20.726	59.009
12.1951	21.301	60.094
12.5000	21.916	61.204
12.8205	22.542	62.357
13.1579	23.200	63.563
13.5135	23.884	64.825
13.8889	24.608	66.149
14.2857	25.367	67.531
14.7059	26.165	68.989
15.1515	27.018	70.518
15.6250	27.922	72.113
16.1290	28.857	73.791
16.6667	29.848	75.584
17.2414	30.915	77.478
17.8571	32.043	79.466
18.5185	33.212	81.598
19.2308	34.469	83.900
20.0000	35.815	86.381
20.8333	37.298	89.081
21.7391	38.921	91.950
22.7273	40.630	95.102
23.8095	42.559	98.608
25.0000	44.720	102.423
26.3158	47.131	106.723
27.7778	50.022	111.531
29.4118	53.449	116.784
31.2500	57.475	122.654
33.3333	62.410	129.145
35.7143	68.393	136.282
38.4615	75.795	144.087
41.6667	84.991	152.486
45.4545	96.436	161.229
50.0000	110.527	170.240
55.5556	128.885	179.300
