Material: alloys / Cu-Zn / Querry-Cu90Zn10
Optical constants. M. R. Querry. Optical constants, Contractor Report CRDC-CR-85034 (1985)
Comments: 90% Cu, 10% Zn.
wavelength (um)	n	k
0.2100	1.163	1.240
0.2300	1.265	1.354
0.2500	1.360	1.394
0.2700	1.400	1.425
0.2900	1.440	1.451
0.3100	1.454	1.438
0.3300	1.401	1.415
0.3500	1.292	1.443
0.3700	1.193	1.534
0.3900	1.126	1.641
0.4100	1.072	1.745
0.4300	1.024	1.847
0.4500	0.980	1.945
0.4700	0.937	2.033
0.4900	0.883	2.108
0.5100	0.798	2.173
0.5300	0.667	2.262
0.5500	0.519	2.415
0.5700	0.409	2.626
0.5900	0.357	2.848
0.6100	0.339	3.046
0.6300	0.327	3.226
0.6500	0.320	3.396
0.6700	0.314	3.558
0.6900	0.308	3.717
0.7100	0.305	3.872
0.7300	0.302	4.022
0.7500	0.298	4.171
0.7700	0.294	4.320
0.7900	0.293	4.466
0.8100	0.287	4.609
0.8300	0.280	4.757
0.8500	0.278	4.908
0.8700	0.279	5.057
0.8900	0.284	5.208
0.9100	0.293	5.350
0.9300	0.298	5.493
0.9500	0.308	5.634
0.9700	0.315	5.771
0.9900	0.321	5.907
1.0100	0.327	6.044
1.0300	0.333	6.180
1.0500	0.339	6.315
1.0700	0.343	6.450
1.0900	0.348	6.585
1.1100	0.354	6.722
1.1300	0.361	6.857
1.1500	0.368	6.990
1.1700	0.374	7.124
1.1900	0.381	7.257
1.2100	0.385	7.388
1.2300	0.388	7.524
1.2500	0.395	7.660
1.2700	0.403	7.794
1.2900	0.410	7.930
1.3100	0.420	8.065
1.3300	0.431	8.197
1.3500	0.439	8.328
1.3700	0.448	8.460
1.3900	0.457	8.591
1.4100	0.464	8.721
1.4300	0.470	8.853
1.4500	0.477	8.987
1.4700	0.487	9.121
1.4900	0.497	9.255
1.5100	0.508	9.387
1.5300	0.520	9.519
1.5500	0.531	9.650
1.5700	0.542	9.781
1.5900	0.555	9.912
1.6100	0.567	10.040
1.6300	0.577	10.170
1.6500	0.589	10.301
1.6700	0.601	10.430
1.6900	0.614	10.558
1.7100	0.626	10.685
1.7300	0.634	10.810
1.7500	0.642	10.940
1.7700	0.651	11.071
1.7900	0.660	11.203
1.8100	0.672	11.336
1.8300	0.686	11.466
1.8500	0.700	11.596
1.8700	0.714	11.726
1.8900	0.728	11.855
1.9100	0.742	11.985
1.9300	0.756	12.114
1.9500	0.770	12.242
1.9700	0.784	12.370
1.9900	0.800	12.498
2.0100	0.815	12.627
2.0300	0.829	12.754
2.0500	0.846	12.881
2.0700	0.862	13.007
2.0900	0.877	13.133
2.1100	0.891	13.257
2.1300	0.906	13.383
2.1500	0.918	13.509
2.1700	0.931	13.634
2.1900	0.945	13.762
2.2100	0.960	13.889
2.2300	0.976	14.017
2.2500	0.991	14.143
2.2700	1.006	14.269
2.2900	1.023	14.394
2.3100	1.039	14.521
2.3300	1.054	14.646
2.3500	1.069	14.772
2.3700	1.085	14.895
2.3900	1.102	15.020
2.4100	1.118	15.147
2.4300	1.134	15.272
2.4500	1.149	15.398
2.4700	1.165	15.520
2.4900	1.184	15.645
2.5063	1.194	15.747
2.5189	1.205	15.827
2.5316	1.216	15.905
2.5445	1.227	15.985
2.5575	1.237	16.065
2.5707	1.248	16.147
2.5840	1.259	16.229
2.5974	1.269	16.312
2.6110	1.280	16.396
2.6247	1.290	16.481
2.6385	1.301	16.567
2.6525	1.312	16.654
2.6667	1.323	16.743
2.6810	1.334	16.832
2.6954	1.345	16.923
2.7100	1.357	17.014
2.7248	1.370	17.107
2.7397	1.382	17.200
2.7548	1.395	17.295
2.7701	1.408	17.390
2.7855	1.421	17.487
2.8011	1.434	17.585
2.8169	1.448	17.685
2.8329	1.464	17.785
2.8490	1.478	17.885
2.8653	1.494	17.988
2.8818	1.509	18.090
2.8986	1.524	18.195
2.9155	1.541	18.300
2.9326	1.557	18.406
2.9499	1.574	18.515
2.9674	1.592	18.623
2.9851	1.609	18.732
3.0030	1.626	18.844
3.0211	1.645	18.956
3.0395	1.663	19.069
3.0581	1.681	19.185
3.0769	1.701	19.302
3.0960	1.722	19.419
3.1153	1.741	19.536
3.1348	1.760	19.657
3.1546	1.782	19.780
3.1746	1.804	19.902
3.1949	1.825	20.026
3.2154	1.845	20.153
3.2362	1.869	20.282
3.2573	1.893	20.411
3.2787	1.917	20.542
3.3003	1.942	20.673
3.3223	1.967	20.806
3.3445	1.993	20.941
3.3670	2.019	21.077
3.3898	2.046	21.214
3.4130	2.073	21.353
3.4364	2.100	21.493
3.4602	2.127	21.633
3.4843	2.152	21.777
3.5088	2.180	21.925
3.5336	2.209	22.073
3.5587	2.239	22.221
3.5842	2.266	22.372
3.6101	2.295	22.527
3.6364	2.325	22.682
3.6630	2.354	22.841
3.6900	2.387	23.002
3.7175	2.418	23.162
3.7453	2.449	23.327
3.7736	2.481	23.494
3.8023	2.514	23.665
3.8314	2.549	23.836
3.8610	2.582	24.010
3.8911	2.618	24.187
3.9216	2.653	24.366
3.9526	2.689	24.549
3.9841	2.726	24.734
4.0161	2.764	24.922
4.0486	2.802	25.112
4.0816	2.843	25.306
4.1152	2.883	25.503
4.1494	2.926	25.703
4.1841	2.969	25.904
4.2194	3.012	26.109
4.2553	3.057	26.317
4.2918	3.102	26.530
4.3290	3.150	26.744
4.3668	3.197	26.961
4.4053	3.247	27.183
4.4444	3.298	27.406
4.4843	3.348	27.633
4.5249	3.400	27.864
4.5662	3.453	28.099
4.6083	3.508	28.337
4.6512	3.561	28.578
4.6948	3.617	28.826
4.7393	3.676	29.076
4.7847	3.734	29.328
4.8309	3.793	29.584
4.8780	3.851	29.845
4.9261	3.909	30.113
4.9751	3.969	30.386
5.0251	4.030	30.665
5.0761	4.094	30.940
5.1282	4.158	31.236
5.1813	4.223	31.529
5.2356	4.287	31.829
5.2910	4.353	32.136
5.3476	4.421	32.450
5.4054	4.491	32.770
5.4645	4.561	33.096
5.5249	4.632	33.433
5.5866	4.707	33.776
5.6497	4.784	34.129
5.7143	4.866	34.490
5.7803	4.950	34.857
5.8480	5.037	35.233
5.9172	5.127	35.617
5.9880	5.219	36.010
6.0606	5.315	36.415
6.1350	5.419	36.828
6.2112	5.527	37.247
6.2893	5.638	37.675
6.3694	5.753	38.112
6.4516	5.871	38.559
6.5359	5.996	39.017
6.6225	6.129	39.481
6.7114	6.260	39.953
6.8027	6.395	40.439
6.8966	6.539	40.935
6.9930	6.686	41.437
7.0922	6.833	41.951
7.1942	6.985	42.477
7.2993	7.142	43.015
7.4074	7.304	43.561
7.5188	7.461	44.117
7.6336	7.615	44.699
7.7519	7.785	45.297
7.8740	7.952	45.903
8.0000	8.118	46.533
8.1301	8.292	47.184
8.2645	8.472	47.852
8.4034	8.648	48.539
8.5470	8.828	49.259
8.6957	9.018	50.001
8.8496	9.210	50.769
9.0090	9.408	51.566
9.1743	9.613	52.400
9.3458	9.836	53.261
9.5238	10.061	54.156
9.7087	10.304	55.088
9.9010	10.557	56.050
10.1010	10.821	57.057
10.3093	11.108	58.101
10.5263	11.408	59.183
10.7527	11.725	60.308
10.9890	12.059	61.479
11.2360	12.419	62.700
11.4943	12.801	63.960
11.7647	13.200	65.276
12.0482	13.624	66.639
12.3457	14.069	68.065
12.6582	14.541	69.537
12.9870	15.015	71.086
13.3333	15.531	72.716
13.6986	16.073	74.408
14.0845	16.634	76.185
14.4928	17.217	78.060
14.9254	17.837	80.048
15.3846	18.502	82.143
15.8730	19.199	84.343
16.3934	19.909	86.690
16.9492	20.672	89.201
17.5439	21.464	91.390
18.1818	22.326	94.822
18.8679	23.303	97.945
19.6078	24.326	101.304
20.4082	25.449	104.958
21.2766	26.674	108.956
22.2222	28.078	113.345
23.2558	29.678	118.143
24.3902	31.526	123.394
25.6410	33.608	129.195
27.0270	36.090	135.677
28.5714	39.083	142.859
30.3030	42.690	150.799
32.2581	47.012	159.655
34.4828	52.313	169.526
37.0370	58.813	180.640
40.0000	67.101	193.002
43.4783	77.307	206.593
47.6190	90.071	222.012
52.6316	106.633	239.428
