Material: alloys / Cu-Zn / Querry-Cu85Zn15
Optical constants. M. R. Querry. Optical constants, Contractor Report CRDC-CR-85034 (1985)
Comments: 85% Cu, 15% Zn.
wavelength (um)	n	k
0.2100	1.094	1.089
0.2300	1.164	1.209
0.2500	1.231	1.263
0.2700	1.249	1.322
0.2900	1.283	1.394
0.3100	1.325	1.438
0.3300	1.351	1.454
0.3500	1.347	1.442
0.3700	1.284	1.431
0.3900	1.184	1.460
0.4100	1.083	1.534
0.4300	0.999	1.630
0.4500	0.929	1.729
0.4700	0.860	1.825
0.4900	0.783	1.920
0.5100	0.687	2.027
0.5300	0.583	2.167
0.5500	0.500	2.337
0.5700	0.441	2.520
0.5900	0.412	2.706
0.6100	0.400	2.875
0.6300	0.393	3.034
0.6500	0.390	3.187
0.6700	0.387	3.334
0.6900	0.385	3.479
0.7100	0.386	3.620
0.7300	0.386	3.759
0.7500	0.386	3.894
0.7700	0.387	4.032
0.7900	0.390	4.168
0.8100	0.394	4.301
0.8300	0.393	4.433
0.8500	0.396	4.570
0.8700	0.403	4.704
0.8900	0.412	4.839
0.9100	0.423	4.968
0.9300	0.432	5.099
0.9500	0.444	5.226
0.9700	0.455	5.352
0.9900	0.467	5.475
1.0100	0.476	5.597
1.0300	0.485	5.719
1.0500	0.493	5.842
1.0700	0.501	5.966
1.0900	0.509	6.089
1.1100	0.519	6.213
1.1300	0.531	6.335
1.1500	0.540	6.454
1.1700	0.548	6.578
1.1900	0.560	6.700
1.2100	0.572	6.818
1.2300	0.578	6.939
1.2500	0.589	7.062
1.2700	0.601	7.182
1.2900	0.611	7.303
1.3100	0.625	7.426
1.3300	0.641	7.543
1.3500	0.652	7.658
1.3700	0.662	7.775
1.3900	0.673	7.891
1.4100	0.681	8.008
1.4300	0.687	8.127
1.4500	0.696	8.250
1.4700	0.708	8.371
1.4900	0.720	8.492
1.5100	0.732	8.612
1.5300	0.745	8.734
1.5500	0.761	8.855
1.5700	0.778	8.972
1.5900	0.792	9.089
1.6100	0.807	9.207
1.6300	0.822	9.322
1.6500	0.834	9.438
1.6700	0.849	9.555
1.6900	0.863	9.670
1.7100	0.875	9.784
1.7300	0.885	9.899
1.7500	0.895	10.019
1.7700	0.908	10.140
1.7900	0.923	10.258
1.8100	0.935	10.375
1.8300	0.948	10.499
1.8500	0.968	10.622
1.8700	0.989	10.741
1.8900	1.011	10.857
1.9100	1.032	10.967
1.9300	1.046	11.078
1.9500	1.059	11.193
1.9700	1.073	11.308
1.9900	1.087	11.425
2.0100	1.103	11.543
2.0300	1.120	11.660
2.0500	1.137	11.776
2.0700	1.154	11.892
2.0900	1.172	12.007
2.1100	1.189	12.123
2.1300	1.206	12.240
2.1500	1.223	12.355
2.1700	1.241	12.471
2.1900	1.258	12.587
2.2100	1.276	12.705
2.2300	1.295	12.821
2.2500	1.315	12.937
2.2700	1.334	13.053
2.2900	1.353	13.170
2.3100	1.373	13.286
2.3300	1.394	13.401
2.3500	1.414	13.518
2.3700	1.434	13.632
2.3900	1.455	13.750
2.4100	1.478	13.868
2.4300	1.500	13.981
2.4500	1.525	14.098
2.4700	1.550	14.212
2.4900	1.572	14.325
2.5063	1.590	14.418
2.5189	1.606	14.491
2.5316	1.623	14.564
2.5445	1.639	14.637
2.5575	1.656	14.710
2.5707	1.672	14.784
2.5840	1.689	14.859
2.5974	1.707	14.933
2.6110	1.724	15.009
2.6247	1.742	15.085
2.6385	1.760	15.162
2.6525	1.778	15.239
2.6667	1.796	15.316
2.6810	1.815	15.394
2.6954	1.833	15.472
2.7100	1.850	15.552
2.7248	1.868	15.632
2.7397	1.887	15.713
2.7548	1.905	15.796
2.7701	1.925	15.879
2.7855	1.944	15.961
2.8011	1.963	16.045
2.8169	1.981	16.131
2.8329	2.001	16.217
2.8490	2.021	16.304
2.8653	2.041	16.391
2.8818	2.061	16.480
2.8986	2.081	16.570
2.9155	2.101	16.660
2.9326	2.121	16.752
2.9499	2.142	16.845
2.9674	2.163	16.938
2.9851	2.184	17.032
3.0030	2.205	17.128
3.0211	2.227	17.224
3.0395	2.249	17.322
3.0581	2.271	17.421
3.0769	2.292	17.521
3.0960	2.315	17.623
3.1153	2.338	17.725
3.1348	2.360	17.928
3.1546	2.383	17.933
3.1746	2.407	18.039
3.1949	2.429	18.146
3.2154	2.452	18.256
3.2362	2.476	18.367
3.2573	2.501	18.479
3.2787	2.526	18.592
3.3003	2.550	18.707
3.3223	2.575	18.823
3.3445	2.600	18.941
3.3670	2.624	19.062
3.3898	2.651	19.184
3.4130	2.677	19.306
3.4364	2.703	19.433
3.4602	2.732	19.561
3.4843	2.760	19.689
3.5088	2.787	19.921
3.5336	2.818	19.954
3.5587	2.847	20.088
3.5842	2.876	20.226
3.6101	2.909	20.366
3.6364	2.940	20.507
3.6630	2.973	20.652
3.6900	3.007	20.797
3.7175	3.042	20.946
3.7453	3.078	21.096
3.7736	3.115	21.248
3.8023	3.153	21.402
3.8314	3.192	21.559
3.8610	3.231	21.717
3.8891	3.272	21.879
3.9216	3.314	22.043
3.9526	3.357	22.209
3.9841	3.401	22.378
4.0161	3.449	22.549
4.0486	3.496	22.721
4.0816	3.542	22.897
4.1152	3.592	23.076
4.1494	3.644	23.258
4.1841	3.697	23.440
4.2194	3.749	23.625
4.2553	3.804	23.815
4.2918	3.862	24.007
4.3290	3.921	24.201
4.3668	3.981	24.398
4.4053	4.042	24.598
4.4444	4.106	24.801
4.4843	4.174	25.005
4.5249	4.240	25.211
4.5662	4.310	25.422
4.6083	4.382	25.631
4.6512	4.452	25.843
4.6948	4.522	26.058
4.7393	4.592	26.277
4.7847	4.662	26.500
4.8309	4.732	26.729
4.8780	4.804	26.963
4.9261	4.878	27.201
4.9751	4.950	27.444
5.0251	5.026	27.696
5.0761	5.106	27.950
5.1282	5.185	28.212
5.1813	5.271	28.480
5.2356	5.357	28.752
5.2910	5.448	29.031
5.3476	5.540	29.316
5.4054	5.639	29.610
5.4645	5.744	29.906
5.5249	5.852	30.209
5.5866	5.967	30.517
5.6497	6.097	30.925
5.7143	6.209	31.140
5.7803	6.338	31.456
5.8480	6.465	31.776
5.9172	6.595	32.105
5.9880	6.731	32.441
6.0606	6.875	32.777
6.1350	7.014	33.118
6.2112	7.157	33.472
6.2893	7.310	33.829
6.3694	7.463	34.189
6.4516	7.616	34.559
6.5359	7.777	34.939
6.6225	7.942	35.322
6.7114	8.106	35.715
6.8027	8.278	36.117
6.8966	8.453	36.526
6.9930	8.631	36.945
7.0922	8.809	37.375
7.1942	8.997	37.821
7.2993	9.193	38.270
7.4074	9.386	38.732
7.5188	9.587	39.210
7.6336	9.796	39.701
7.7519	10.012	40.205
7.8740	10.235	40.719
8.0000	10.459	41.247
8.1301	10.690	41.798
8.2645	10.933	42.364
8.4034	11.186	42.949
8.5470	11.450	43.549
8.6957	11.721	44.169
8.8496	12.006	44.812
9.0090	12.309	45.471
9.1743	12.621	46.148
9.3458	12.951	46.846
9.5238	13.290	47.562
9.7087	13.643	48.304
9.9010	14.013	49.071
10.1010	14.403	49.865
10.3093	14.816	50.678
10.5263	15.242	51.511
10.7527	15.686	52.375
10.9890	16.151	53.265
11.2360	16.632	54.182
11.4943	17.129	55.135
11.7647	17.652	56.119
12.0482	18.191	57.140
12.3457	18.755	58.200
12.6582	19.332	59.303
12.9870	19.934	60.467
13.3333	20.574	61.681
13.6986	21.239	62.940
14.0845	21.917	64.267
14.4928	22.630	65.679
14.9254	23.386	67.174
15.3846	24.193	68.754
15.8730	25.037	70.427
16.3934	25.935	72.219
16.9492	26.888	74.137
17.5439	27.922	76.216
18.1818	29.066	78.451
18.8679	30.330	80.852
19.6078	31.732	83.436
20.4082	33.297	86.231
21.2766	35.079	89.230
22.2222	37.051	92.450
23.2558	39.302	95.994
24.3902	41.933	99.790
25.6410	44.947	103.885
27.0270	48.455	108.288
28.5714	52.551	113.008
30.3030	57.334	118.008
32.2581	62.917	123.353
34.4828	69.557	128.989
37.0370	77.440	134.785
40.0000	86.720	140.601
43.4783	97.658	146.384
47.6190	110.660	151.765
52.6316	125.846	156.236
