Material: main / Si / Schinke
Optical constants. C. Schinke, P. C. Peest, J. Schmidt, R. Brendel, K. Bothe, M. R. Vogt, I. Kröger, S. Winter, A. Schirmacher, S. Lim, H. T. Nguyen, D. MacDonald. Uncertainty analysis for the coefficient of band-to-band absorption of crystalline silicon. AIP Advances 5, 67168 (2015)
Comments: Band-to-band absorption coefficient. Relative uncertainties of the absorption coefficient: 0.4% at 0.250 µm, 11% at 0.6 µm, 1.4% at 1 µm, 12% at 1.2 µm and 180% at 1.45 µm. Temperature: 295 K.
Specs: {"temperature": "295 K"}
wavelength (um)	k
2.5000e-01	3.5889e+00
2.6000e-01	3.9932e+00
2.7000e-01	4.5958e+00
2.8000e-01	5.1961e+00
2.9000e-01	5.3124e+00
3.0000e-01	4.2900e+00
3.1000e-01	3.6239e+00
3.2000e-01	3.2824e+00
3.3000e-01	3.0935e+00
3.4000e-01	2.9573e+00
3.5000e-01	2.9078e+00
3.6000e-01	2.9135e+00
3.7000e-01	2.1403e+00
3.8000e-01	9.8399e-01
3.9000e-01	5.0308e-01
4.0000e-01	3.2627e-01
4.1000e-01	2.4127e-01
4.2000e-01	1.7694e-01
4.3000e-01	1.3766e-01
4.4000e-01	1.1201e-01
4.5000e-01	9.5362e-02
4.6000e-01	7.9105e-02
4.7000e-01	7.0240e-02
4.8000e-01	5.9817e-02
4.9000e-01	5.3810e-02
5.0000e-01	4.8542e-02
5.1000e-01	4.3831e-02
5.2000e-01	3.9531e-02
5.3000e-01	3.4804e-02
5.4000e-01	2.9896e-02
5.5000e-01	2.8038e-02
5.6000e-01	2.6551e-02
5.7000e-01	2.3746e-02
5.8000e-01	2.1896e-02
5.9000e-01	2.0076e-02
6.0000e-01	1.8521e-02
6.1000e-01	1.7257e-02
6.2000e-01	1.6809e-02
6.3000e-01	1.6268e-02
6.4000e-01	1.4693e-02
6.5000e-01	1.4447e-02
6.6000e-01	1.3608e-02
6.7000e-01	1.2807e-02
6.8000e-01	1.2045e-02
6.9000e-01	1.1317e-02
7.0000e-01	1.0623e-02
7.1000e-01	9.9610e-03
7.2000e-01	9.3335e-03
7.3000e-01	8.7312e-03
7.4000e-01	8.1618e-03
7.5000e-01	7.6156e-03
7.6000e-01	7.0942e-03
7.7000e-01	6.6054e-03
7.8000e-01	6.1338e-03
7.9000e-01	5.6888e-03
8.0000e-01	5.2655e-03
8.1000e-01	4.8640e-03
8.2000e-01	4.4836e-03
8.3000e-01	4.1235e-03
8.4000e-01	3.7828e-03
8.5000e-01	3.4605e-03
8.6000e-01	3.1563e-03
8.7000e-01	2.8697e-03
8.8000e-01	2.6001e-03
8.9000e-01	2.3464e-03
9.0000e-01	2.1092e-03
9.1000e-01	1.8864e-03
9.2000e-01	1.6787e-03
9.3000e-01	1.4757e-03
9.4000e-01	1.3061e-03
9.5000e-01	1.1393e-03
9.6000e-01	9.8243e-04
9.7000e-01	8.4060e-04
9.8000e-01	7.1334e-04
9.9000e-01	5.9638e-04
1.0000e+00	4.9020e-04
1.0100e+00	3.9616e-04
1.0200e+00	3.1437e-04
1.0300e+00	2.4048e-04
1.0400e+00	1.7959e-04
1.0500e+00	1.3043e-04
1.0600e+00	9.2450e-05
1.0700e+00	6.7820e-05
1.0800e+00	5.2168e-05
1.0900e+00	3.9770e-05
1.1000e+00	3.0217e-05
1.1100e+00	2.2913e-05
1.1200e+00	1.7068e-05
1.1300e+00	1.2382e-05
1.1400e+00	8.6210e-06
1.1500e+00	5.6876e-06
1.1600e+00	3.4275e-06
1.1700e+00	1.7653e-06
1.1800e+00	5.5561e-07
1.1900e+00	2.3153e-07
1.2000e+00	1.3904e-07
1.2100e+00	8.0863e-08
1.2200e+00	4.7940e-08
1.2300e+00	2.7132e-08
1.2400e+00	1.4318e-08
1.2500e+00	5.8798e-09
1.2600e+00	2.3352e-09
1.2700e+00	1.2714e-09
1.2800e+00	7.5284e-10
1.2900e+00	4.4799e-10
1.3000e+00	2.7228e-10
1.3100e+00	1.5856e-10
1.3200e+00	8.7196e-11
1.3300e+00	4.2039e-11
1.3400e+00	1.8128e-11
1.3500e+00	1.0428e-11
1.3600e+00	6.2911e-12
1.3700e+00	3.9030e-12
1.3800e+00	2.6367e-12
1.3900e+00	1.7377e-12
1.4000e+00	1.0428e-12
1.4100e+00	6.0422e-13
1.4200e+00	4.2895e-13
1.4300e+00	2.0381e-13
1.4400e+00	1.3785e-13
1.4500e+00	1.0901e-13
