Material: semiconductor alloys / GaAs-InAs / Adachi
Optical constants. S. Adachi. Optical dispersion relations for GaP, GaAs, GaSb, InP, InAs, InSb, AlxGa1−xAs, and In1−xGaxAsyP1−y, J. Appl. Phys. 66, 6030-6040 (1989)[Calculation script (Python)]
Comments: In1-xGaxAs; x=0.48
wavelength (um)	n	k
2.0664e-01	1.2541e+00	1.7728e+00
2.0767e-01	1.2603e+00	1.7923e+00
2.0870e-01	1.2668e+00	1.8121e+00
2.0975e-01	1.2737e+00	1.8324e+00
2.1081e-01	1.2808e+00	1.8530e+00
2.1188e-01	1.2882e+00	1.8740e+00
2.1295e-01	1.2960e+00	1.8955e+00
2.1404e-01	1.3042e+00	1.9174e+00
2.1515e-01	1.3128e+00	1.9397e+00
2.1626e-01	1.3218e+00	1.9625e+00
2.1738e-01	1.3312e+00	1.9859e+00
2.1852e-01	1.3411e+00	2.0097e+00
2.1967e-01	1.3515e+00	2.0340e+00
2.2083e-01	1.3625e+00	2.0588e+00
2.2200e-01	1.3740e+00	2.0842e+00
2.2318e-01	1.3862e+00	2.1102e+00
2.2438e-01	1.3990e+00	2.1368e+00
2.2559e-01	1.4126e+00	2.1639e+00
2.2681e-01	1.4270e+00	2.1917e+00
2.2805e-01	1.4421e+00	2.2201e+00
2.2930e-01	1.4582e+00	2.2491e+00
2.3057e-01	1.4753e+00	2.2788e+00
2.3184e-01	1.4934e+00	2.3091e+00
2.3314e-01	1.5126e+00	2.3401e+00
2.3444e-01	1.5330e+00	2.3718e+00
2.3577e-01	1.5548e+00	2.4041e+00
2.3710e-01	1.5781e+00	2.4371e+00
2.3845e-01	1.6028e+00	2.4708e+00
2.3982e-01	1.6293e+00	2.5050e+00
2.4120e-01	1.6576e+00	2.5398e+00
2.4260e-01	1.6878e+00	2.5752e+00
2.4402e-01	1.7202e+00	2.6110e+00
2.4545e-01	1.7549e+00	2.6472e+00
2.4690e-01	1.7921e+00	2.6837e+00
2.4837e-01	1.8320e+00	2.7203e+00
2.4985e-01	1.8747e+00	2.7570e+00
2.5135e-01	1.9206e+00	2.7933e+00
2.5287e-01	1.9697e+00	2.8293e+00
2.5441e-01	2.0224e+00	2.8645e+00
2.5597e-01	2.0787e+00	2.8985e+00
2.5755e-01	2.1388e+00	2.9312e+00
2.5914e-01	2.2030e+00	2.9618e+00
2.6076e-01	2.2712e+00	2.9900e+00
2.6239e-01	2.3434e+00	3.0151e+00
2.6405e-01	2.4197e+00	3.0365e+00
2.6573e-01	2.4997e+00	3.0536e+00
2.6743e-01	2.5832e+00	3.0655e+00
2.6915e-01	2.6698e+00	3.0716e+00
2.7089e-01	2.7587e+00	3.0712e+00
2.7266e-01	2.8492e+00	3.0637e+00
2.7445e-01	2.9403e+00	3.0486e+00
2.7626e-01	3.0309e+00	3.0256e+00
2.7810e-01	3.1197e+00	2.9947e+00
2.7996e-01	3.2056e+00	2.9560e+00
2.8185e-01	3.2873e+00	2.9100e+00
2.8376e-01	3.3636e+00	2.8574e+00
2.8570e-01	3.4336e+00	2.7991e+00
2.8766e-01	3.4967e+00	2.7363e+00
2.8966e-01	3.5522e+00	2.6702e+00
2.9168e-01	3.6000e+00	2.6020e+00
2.9372e-01	3.6402e+00	2.5330e+00
2.9580e-01	3.6730e+00	2.4643e+00
2.9791e-01	3.6989e+00	2.3970e+00
3.0005e-01	3.7185e+00	2.3318e+00
3.0222e-01	3.7325e+00	2.2695e+00
3.0442e-01	3.7417e+00	2.2105e+00
3.0665e-01	3.7467e+00	2.1552e+00
3.0891e-01	3.7484e+00	2.1039e+00
3.1121e-01	3.7473e+00	2.0565e+00
3.1354e-01	3.7442e+00	2.0131e+00
3.1591e-01	3.7395e+00	1.9737e+00
3.1832e-01	3.7338e+00	1.9381e+00
3.2076e-01	3.7275e+00	1.9062e+00
3.2324e-01	3.7210e+00	1.8777e+00
3.2576e-01	3.7146e+00	1.8524e+00
3.2831e-01	3.7087e+00	1.8302e+00
3.3091e-01	3.7034e+00	1.8109e+00
3.3355e-01	3.6989e+00	1.7942e+00
3.3623e-01	3.6955e+00	1.7799e+00
3.3896e-01	3.6932e+00	1.7678e+00
3.4173e-01	3.6923e+00	1.7578e+00
3.4454e-01	3.6928e+00	1.7496e+00
3.4741e-01	3.6947e+00	1.7432e+00
3.5032e-01	3.6983e+00	1.7382e+00
3.5328e-01	3.7036e+00	1.7347e+00
3.5629e-01	3.7106e+00	1.7325e+00
3.5935e-01	3.7194e+00	1.7313e+00
3.6246e-01	3.7300e+00	1.7312e+00
3.6563e-01	3.7426e+00	1.7320e+00
3.6886e-01	3.7573e+00	1.7335e+00
3.7214e-01	3.7740e+00	1.7357e+00
3.7548e-01	3.7928e+00	1.7386e+00
3.7888e-01	3.8139e+00	1.7419e+00
3.8235e-01	3.8374e+00	1.7456e+00
3.8588e-01	3.8632e+00	1.7496e+00
3.8947e-01	3.8916e+00	1.7538e+00
3.9313e-01	3.9226e+00	1.7582e+00
3.9686e-01	3.9564e+00	1.7626e+00
4.0066e-01	3.9931e+00	1.7670e+00
4.0454e-01	4.0328e+00	1.7713e+00
4.0849e-01	4.0756e+00	1.7755e+00
4.1252e-01	4.1216e+00	1.7795e+00
4.1663e-01	4.1705e+00	1.7835e+00
4.2082e-01	4.2222e+00	1.7875e+00
4.2510e-01	4.2758e+00	1.7919e+00
4.2947e-01	4.3300e+00	1.7971e+00
4.3392e-01	4.3832e+00	1.8040e+00
4.3847e-01	4.4160e+00	1.7691e+00
4.4312e-01	4.4163e+00	1.6587e+00
4.4786e-01	4.4364e+00	1.6034e+00
4.5271e-01	4.4611e+00	1.5622e+00
4.5767e-01	4.4891e+00	1.5283e+00
4.6273e-01	4.5191e+00	1.4992e+00
4.6791e-01	4.5490e+00	1.4742e+00
4.7320e-01	4.5746e+00	1.4534e+00
4.7862e-01	4.5909e+00	1.4380e+00
4.8416e-01	4.7107e+00	1.7698e+00
4.8983e-01	4.6092e+00	1.5138e+00
4.9564e-01	4.5265e+00	1.3304e+00
5.0158e-01	4.4463e+00	1.1689e+00
5.0767e-01	4.3682e+00	1.0161e+00
5.1391e-01	4.2935e+00	8.6563e-01
5.2030e-01	4.2264e+00	7.3073e-01
5.2686e-01	4.1844e+00	7.2078e-01
5.3358e-01	4.1443e+00	7.1021e-01
5.4048e-01	4.1062e+00	6.9901e-01
5.4756e-01	4.0703e+00	6.8717e-01
5.5482e-01	4.0363e+00	6.7470e-01
5.6228e-01	4.0042e+00	6.6162e-01
5.6994e-01	3.9738e+00	6.4796e-01
5.7782e-01	3.9450e+00	6.3374e-01
5.8591e-01	3.9176e+00	6.1898e-01
5.9424e-01	3.8917e+00	6.0373e-01
6.0281e-01	3.8670e+00	5.8799e-01
6.1162e-01	3.8436e+00	5.7179e-01
6.2070e-01	3.8212e+00	5.5517e-01
6.3005e-01	3.7999e+00	5.3814e-01
6.3969e-01	3.7795e+00	5.2074e-01
6.4963e-01	3.7601e+00	5.0298e-01
6.5988e-01	3.7416e+00	4.8491e-01
6.7046e-01	3.7240e+00	4.6655e-01
6.8138e-01	3.7071e+00	4.4795e-01
6.9267e-01	3.6911e+00	4.2913e-01
7.0433e-01	3.6758e+00	4.1014e-01
7.1640e-01	3.6613e+00	3.9102e-01
7.2889e-01	3.6475e+00	3.7184e-01
7.4182e-01	3.6344e+00	3.5264e-01
7.5521e-01	3.6220e+00	3.3350e-01
7.6910e-01	3.6104e+00	3.1448e-01
7.8351e-01	3.5994e+00	2.9567e-01
7.9847e-01	3.5891e+00	2.7716e-01
8.1402e-01	3.5794e+00	2.5904e-01
8.3018e-01	3.5705e+00	2.4145e-01
8.4699e-01	3.5622e+00	2.2450e-01
8.6450e-01	3.5546e+00	2.0834e-01
8.8275e-01	3.5477e+00	1.9314e-01
9.0179e-01	3.5415e+00	1.7909e-01
9.2166e-01	3.5360e+00	1.6638e-01
9.4243e-01	3.5312e+00	1.5525e-01
9.6416e-01	3.5271e+00	1.4597e-01
9.8691e-01	3.5238e+00	1.3883e-01
1.0108e+00	3.5212e+00	1.3417e-01
1.0358e+00	3.5194e+00	1.3232e-01
1.0621e+00	3.5184e+00	1.3144e-01
1.0898e+00	3.5182e+00	1.2998e-01
1.1190e+00	3.5187e+00	1.2766e-01
1.1497e+00	3.5201e+00	1.2390e-01
1.1822e+00	3.5223e+00	1.1656e-01
1.2166e+00	3.5137e+00	1.0917e-01
1.2531e+00	3.5106e+00	1.0848e-01
1.2918e+00	3.5098e+00	1.0723e-01
1.3329e+00	3.5106e+00	1.0526e-01
1.3768e+00	3.5127e+00	1.0232e-01
1.4237e+00	3.5162e+00	9.8017e-02
1.4739e+00	3.5211e+00	9.1720e-02
1.5277e+00	3.5276e+00	8.2274e-02
1.5857e+00	3.5356e+00	6.6993e-02
1.6482e+00	3.5455e+00	3.0846e-02
1.7158e+00	3.5041e+00	1.6086e-02
1.7892e+00	3.4886e+00	1.5428e-02
1.8692e+00	3.4776e+00	1.4754e-02
1.9566e+00	3.4688e+00	1.4075e-02
2.0527e+00	3.4614e+00	1.3395e-02
2.1586e+00	3.4549e+00	1.2716e-02
2.2761e+00	3.4492e+00	1.2039e-02
2.4071e+00	3.4442e+00	1.1364e-02
2.5541e+00	3.4396e+00	1.0692e-02
2.7203e+00	3.4354e+00	1.0022e-02
2.9095e+00	3.4317e+00	9.3559e-03
3.1271e+00	3.4283e+00	8.6921e-03
3.3798e+00	3.4252e+00	8.0310e-03
3.6770e+00	3.4225e+00	7.3723e-03
4.0315e+00	3.4200e+00	6.7161e-03
4.4616e+00	3.4177e+00	6.0620e-03
4.9945e+00	3.4158e+00	5.4098e-03
5.6719e+00	3.4140e+00	4.7595e-03
6.5619e+00	3.4125e+00	4.1108e-03
7.7832e+00	3.4113e+00	3.4634e-03
9.5631e+00	3.4102e+00	2.8173e-03
1.2398e+01	3.4094e+00	2.1720e-03
