Material: mixed organic-inorganic / Li-C12H4N4 / Querry
Optical constants. M. R. Querry. Optical constants, Contractor Report CRDC-CR-85034 (1985)
Comments: Lithium:Tetracyanoquinodimethane (Li:TCNQ).
wavelength (um)	n	k
0.2100	1.322	0.130
0.2300	1.336	0.075
0.2500	1.312	0.053
0.2700	1.290	0.059
0.2900	1.260	0.054
0.3100	1.196	0.079
0.3300	1.138	0.180
0.3500	1.192	0.326
0.3700	1.341	0.373
0.3900	1.456	0.312
0.4100	1.495	0.204
0.4300	1.450	0.126
0.4500	1.398	0.102
0.4700	1.353	0.096
0.4900	1.311	0.096
0.5100	1.255	0.105
0.5300	1.191	0.143
0.5500	1.140	0.223
0.5700	1.135	0.329
0.5900	1.188	0.425
0.6100	1.276	0.470
0.6300	1.347	0.464
0.6500	1.388	0.448
0.6700	1.421	0.436
0.6900	1.452	0.411
0.7100	1.462	0.376
0.7300	1.453	0.347
0.7500	1.433	0.329
0.7700	1.405	0.320
0.7900	1.372	0.328
0.8400	1.320	0.401
0.8600	1.313	0.433
0.8800	1.307	0.470
0.9000	1.309	0.512
0.9200	1.321	0.554
0.9400	1.341	0.594
0.9600	1.366	0.629
0.9800	1.395	0.660
1.0000	1.428	0.686
1.0200	1.462	0.708
1.0400	1.498	0.725
1.0600	1.536	0.739
1.0800	1.573	0.746
1.1000	1.609	0.750
1.1200	1.643	0.750
1.1400	1.676	0.748
1.1600	1.706	0.743
1.1800	1.733	0.735
1.2000	1.759	0.733
1.2200	1.789	0.724
1.2400	1.813	0.711
1.2600	1.834	0.698
1.2800	1.853	0.686
1.3000	1.870	0.674
1.3200	1.885	0.662
1.3400	1.899	0.651
1.3600	1.912	0.640
1.3800	1.925	0.630
1.4000	1.937	0.621
1.4200	1.948	0.611
1.4400	1.959	0.601
1.4600	1.970	0.592
1.4800	1.981	0.582
1.5000	1.991	0.573
1.5200	2.002	0.563
1.5400	2.010	0.553
1.5600	2.019	0.545
1.5800	2.028	0.534
1.6000	2.035	0.525
1.6200	2.044	0.516
1.6400	2.052	0.507
1.6600	2.060	0.497
1.6800	2.068	0.488
1.7000	2.076	0.477
1.7200	2.083	0.466
1.7400	2.090	0.455
1.7600	2.096	0.443
1.7800	2.101	0.431
1.8000	2.106	0.418
1.8200	2.107	0.406
1.8400	2.111	0.394
1.8600	2.110	0.382
1.8800	2.111	0.373
1.9000	2.113	0.362
1.9200	2.112	0.351
1.9400	2.111	0.342
1.9600	2.110	0.333
1.9800	2.107	0.324
2.0000	2.107	0.319
2.0200	2.109	0.309
2.0400	2.107	0.300
2.0600	2.104	0.292
2.0800	2.101	0.284
2.1000	2.097	0.278
2.1200	2.095	0.273
2.1400	2.092	0.267
2.1600	2.089	0.261
2.1800	2.085	0.257
2.2000	2.081	0.254
2.2200	2.079	0.251
2.2400	2.077	0.249
2.2600	2.076	0.247
2.2800	2.076	0.243
2.3000	2.075	0.237
2.3200	2.071	0.233
2.3400	2.069	0.232
2.3600	2.067	0.228
2.3800	2.065	0.226
2.4000	2.063	0.223
2.4200	2.061	0.221
2.4400	2.060	0.220
2.4600	2.059	0.218
2.4800	2.058	0.216
2.5000	2.058	0.213
2.5126	2.056	0.212
2.5253	2.056	0.210
2.5381	2.055	0.208
2.5510	2.053	0.207
2.5641	2.052	0.206
2.5773	2.050	0.205
2.5907	2.050	0.205
2.6042	2.050	0.203
2.6178	2.048	0.203
2.6316	2.048	0.203
2.6455	2.049	0.201
2.6596	2.049	0.197
2.6738	2.045	0.197
2.6882	2.047	0.198
2.7027	2.045	0.193
2.7174	2.042	0.193
2.7322	2.044	0.194
2.7473	2.044	0.191
2.7624	2.040	0.189
2.7778	2.039	0.189
2.7933	2.037	0.188
2.8090	2.035	0.190
2.8249	2.037	0.192
2.8409	2.039	0.189
2.8571	2.038	0.187
2.8736	2.037	0.187
2.8902	2.036	0.185
2.9070	2.035	0.185
2.9240	2.034	0.183
2.9412	2.033	0.185
2.9586	2.037	0.183
2.9762	2.035	0.181
2.9940	2.035	0.180
3.0120	2.034	0.177
3.0303	2.031	0.178
3.0488	2.035	0.179
3.0675	2.033	0.174
3.0864	2.033	0.174
3.1056	2.030	0.172
3.1250	2.030	0.173
3.1447	2.029	0.172
3.1646	2.030	0.169
3.1847	2.027	0.169
3.2051	2.027	0.168
3.2258	2.025	0.169
3.2468	2.025	0.169
3.2680	2.026	0.169
3.2895	2.027	0.167
3.3113	2.027	0.165
3.3333	2.026	0.163
3.3557	2.025	0.160
3.3784	2.023	0.158
3.4014	2.021	0.158
3.4247	2.019	0.158
3.4483	2.019	0.159
3.4722	2.019	0.156
3.4965	2.016	0.156
3.5211	2.015	0.157
3.5461	2.016	0.159
3.5714	2.019	0.156
3.5971	2.017	0.151
3.6232	2.013	0.150
3.6496	2.011	0.149
3.6765	2.008	0.149
3.7037	2.006	0.151
3.7313	2.004	0.153
3.7594	2.011	0.155
3.7879	2.009	0.149
3.8168	2.006	0.144
3.8462	2.006	0.144
3.8760	2.002	0.141
3.9063	2.001	0.141
3.9370	1.997	0.137
3.9683	1.995	0.138
4.0000	1.988	0.138
4.0323	1.985	0.137
4.0650	1.983	0.137
4.0984	1.984	0.134
4.1322	1.979	0.131
4.1667	1.970	0.127
4.2017	1.962	0.128
4.2373	1.947	0.126
4.2735	1.942	0.131
4.3103	1.925	0.127
4.3478	1.909	0.126
4.3860	1.878	0.127
4.4248	1.826	0.125
4.4643	1.726	0.141
4.5045	1.337	0.261
4.5455	2.021	0.900
4.5872	2.407	0.527
4.6296	2.341	0.220
4.6729	2.214	0.178
4.7170	2.169	0.153
4.7619	2.137	0.144
4.8077	2.110	0.139
4.8544	2.100	0.135
4.9020	2.088	0.131
4.9505	2.076	0.132
5.0000	2.060	0.138
5.0505	2.070	0.132
5.1020	2.063	0.128
5.1546	2.056	0.124
5.2083	2.046	0.125
5.2632	2.052	0.119
5.3191	2.044	0.116
5.3763	2.038	0.113
5.4348	2.030	0.110
5.4945	2.024	0.108
5.5556	2.017	0.105
5.6180	2.011	0.108
5.6818	2.003	0.103
5.7471	1.993	0.103
5.8140	1.982	0.104
5.8824	1.972	0.103
5.9524	1.958	0.105
6.0241	1.939	0.107
6.0976	1.907	0.114
6.1728	1.870	0.125
6.2500	1.754	0.164
6.3291	1.983	0.751
6.4103	2.192	0.213
6.4935	2.058	0.143
6.5789	1.879	0.150
6.6667	2.281	0.224
6.7568	2.099	0.143
6.8493	2.044	0.103
6.9444	1.998	0.110
7.0423	1.957	0.108
7.1429	1.899	0.113
7.2464	1.798	0.145
7.3529	1.765	0.588
7.4627	1.753	0.528
7.5758	2.546	0.778
7.6923	2.359	0.195
7.8125	2.224	0.142
7.9365	2.145	0.118
8.0645	2.078	0.123
8.1967	2.015	0.122
8.3333	1.727	0.187
8.4746	2.581	0.735
8.6207	2.403	0.191
8.7719	2.278	0.144
8.9286	2.240	0.121
9.0909	2.208	0.103
9.2593	2.186	0.096
9.4340	2.171	0.089
9.6154	2.155	0.086
9.8039	2.134	0.080
10.0000	2.110	0.074
10.2041	2.141	0.090
10.4167	2.107	0.102
10.6383	2.127	0.087
10.8696	2.114	0.075
11.1111	2.096	0.071
11.3636	2.086	0.073
11.6279	2.069	0.067
11.9048	2.006	0.072
12.1951	2.291	0.182
12.5000	2.124	0.076
12.8205	2.086	0.072
13.1579	2.068	0.070
13.5135	2.028	0.071
13.8889	2.120	0.179
14.2857	2.088	0.083
14.7059	2.064	0.076
15.1515	2.042	0.080
15.6250	2.016	0.092
16.1290	2.033	0.128
16.6667	2.029	0.084
17.2414	2.002	0.105
17.8571	1.977	0.179
18.5185	1.954	0.183
19.2308	2.035	0.084
20.0000	1.929	0.083
20.8333	1.853	0.281
21.7391	1.936	0.139
22.7273	1.824	0.196
23.8095	1.756	0.324
25.0000	1.769	0.505
26.3158	1.863	0.690
27.7778	2.193	0.848
29.4118	2.461	0.595
31.2500	2.424	0.379
33.3333	2.329	0.317
35.7143	2.355	0.299
38.4615	2.205	0.344
41.6667	2.446	0.439
45.4545	2.308	0.316
50.0000	2.295	0.392
55.5556	2.516	0.477
