Material: silk / Antheraea mylitta / Perotto
Optical constants. G. Perotto, Y. Zhang, D. Naskar, N. Patel, D. L. Kaplan, S. C. Kundu, F. G. Omenetto. The optical properties of regenerated silk fibroin films obtained from different sources, Appl. Phys. Lett. 111, 103702 (2017)
Comments: Antheraea mylitta fibroin film
Dispersion formula 5, range 0.3 1.695 um, coefficients 1.5204 0.0036 -2 2.9e-4 -4
wavelength (um)	k
0.300	2.310000E-3
0.315	1.720000E-3
0.330	1.310000E-3
0.345	1.030000E-3
0.360	8.208750E-4
0.375	6.676100E-4
0.390	5.516620E-4
0.405	4.623380E-4
0.420	3.923980E-4
0.435	3.368260E-4
0.450	2.920830E-4
0.465	2.556230E-4
0.480	2.255870E-4
0.495	2.005930E-4
0.510	1.796060E-4
0.525	1.618320E-4
0.540	1.466650E-4
0.555	1.336270E-4
0.570	1.223470E-4
0.585	1.125270E-4
0.600	1.039290E-4
0.615	9.636030E-5
0.630	8.966540E-5
0.645	8.371560E-5
0.660	7.840490E-5
0.675	7.364530E-5
0.690	6.936320E-5
0.705	6.549690E-5
0.720	6.199400E-5
0.735	5.881030E-5
0.750	5.590780E-5
0.765	5.325420E-5
0.780	5.082150E-5
0.795	4.858560E-5
0.810	4.652550E-5
0.825	4.462300E-5
0.840	4.286220E-5
0.855	4.122910E-5
0.870	3.971130E-5
0.885	3.829810E-5
0.900	3.697980E-5
0.915	3.574790E-5
0.930	3.459480E-5
0.945	3.351380E-5
0.960	3.249880E-5
0.975	3.154440E-5
0.990	3.064570E-5
1.005	2.979830E-5
1.020	2.899820E-5
1.035	2.824190E-5
1.050	2.752610E-5
1.065	2.684780E-5
1.080	2.620440E-5
1.095	2.559340E-5
1.110	2.501260E-5
1.125	2.446000E-5
1.140	2.393360E-5
1.155	2.343180E-5
1.170	2.295300E-5
1.185	2.249570E-5
1.200	2.205860E-5
1.215	2.164050E-5
1.230	2.124030E-5
1.245	2.085680E-5
1.260	2.048910E-5
1.275	2.013640E-5
1.290	1.979770E-5
1.305	1.947230E-5
1.320	1.915940E-5
1.335	1.885850E-5
1.455	1.681140E-5
1.470	1.659350E-5
1.485	1.638280E-5
1.500	1.617880E-5
1.515	1.598140E-5
1.530	1.579020E-5
1.545	1.560490E-5
1.560	1.542530E-5
1.575	1.525120E-5
1.590	1.508220E-5
1.605	1.491820E-5
1.620	1.475900E-5
1.635	1.460430E-5
1.650	1.445410E-5
1.665	1.430800E-5
1.680	1.416600E-5
1.695	1.402790E-5
