Material: glass / sumita / K-CSK120
Optical constants. SUMITA Zemax catalog 2017-02-02 (obtained from http://www.sumita-opt.co.jp)See also SUMITA optical glass data book
Specs: {"n_is_absolute": false, "λ_is_vacuum": false, "temperature": "20.0 °C", "coefficients_of_thermal_dispersion": "1.46e-06 1.54e-08 -2.77e-11 5.04e-07 3.24e-10 0.172", "n_d": 1.587, "V_d": 59.6, "glass_code": 587596, "density": "3.0 g/cm3", "coefficient_of_thermal_expansion_1": "7.2e-06 K-1", "coefficient_of_thermal_expansion_2": "9.1e-06 K-1", "ΔP_gF": -0.0031, "climatic_resistance": 2.0, "acid_resistance": 4.0}
Dispersion formula 3, range 0.36 1.55 um, coefficients 2.4804566 -0.01071977 2 0.0135632 -2 0.00034918608 -4 -2.3041786e-05 -6 1.5937217e-06 -8
wavelength (um)	k
0.310	6.2618E-06
0.320	2.4240E-06
0.330	1.0166E-06
0.340	4.6209E-07
0.350	2.2317E-07
0.360	1.0801E-07
0.370	8.3618E-08
0.380	4.8774E-08
0.390	3.1191E-08
0.400	6.3726E-09
0.420	6.6912E-09
0.440	7.0098E-09
0.460	7.3285E-09
0.480	7.6471E-09
0.500	7.9657E-09
0.550	8.7623E-09
0.600	9.5589E-09
0.650	1.0355E-08
0.700	1.1152E-08
0.800	1.2745E-08
1.060	5.0764E-08
1.500	1.4411E-07
2.000	5.6702E-07
