Material: glass / sumita / K-PSFn173(M)
Optical constants. SUMITA Zemax catalog 2017-02-02 (obtained from http://www.sumita-opt.co.jp)See also SUMITA optical glass data book
Specs: {"n_is_absolute": false, "λ_is_vacuum": false, "temperature": "20.0 °C", "coefficients_of_thermal_dispersion": "1.59e-05 2.25e-08 -1.48e-10 3.28e-06 3.23e-09 0.333", "n_d": 2.14342, "V_d": 17.3, "glass_code": 148173, "density": "7.03 g/cm3", "coefficient_of_thermal_expansion_1": "7.9e-06 K-1", "coefficient_of_thermal_expansion_2": "9.7e-06 K-1", "ΔP_gF": 0.049, "climatic_resistance": 1.0, "acid_resistance": 4.0}
Dispersion formula 3, range 0.4 1.55 um, coefficients 4.2616161 -0.013994195 2 0.095197887 -2 0.0078651735 -4 -0.00053525936 -6 0.00012395474 -8
wavelength (um)	k
0.400	2.7626E-05
0.420	6.7826E-06
0.440	1.2167E-06
0.460	3.5909E-07
0.480	1.7951E-07
0.500	1.0653E-07
0.550	7.3129E-08
0.600	7.9777E-08
0.650	1.0376E-07
0.700	1.1174E-07
0.800	1.0637E-07
1.060	5.6291E-08
1.500	7.9657E-08
2.000	3.7267E-07
