Material: alloys / Au-Ag / Rioux-Au0Ag100
Optical constants. D. Rioux, S. Vallières, S. Besner, P. Muñoz, E. Mazur and M. Meunier. An analytic model for the dielectric function of Au, Ag, and their alloys, Adv. Opt. Mater. 2, 176-182 (2014) (See Supporting information for MATLAB model)
Comments: 0% Au, 100% Ag. Model fitted on ellipsometric measurements on five different AuAg alloy thin film compositions; Thin film compositions: Au, Au:Ag 2:1, Au:Ag 1:1, Au:Ag 1:2, Ag; Film thickness: 80 nm
wavelength (um)	n	k
0.270	1.27804	1.27504
0.273	1.30005	1.26397
0.276	1.32266	1.24901
0.279	1.34564	1.22949
0.282	1.36857	1.20456
0.285	1.39071	1.17334
0.288	1.41088	1.13502
0.291	1.42748	1.08931
0.294	1.43910	1.03690
0.297	1.44603	0.97944
0.300	1.45276	0.91714
0.303	1.47027	0.84043
0.306	1.48851	0.69071
0.309	1.38651	0.52353
0.312	1.24533	0.40846
0.315	1.07131	0.32502
0.318	0.87367	0.30488
0.321	0.69311	0.32907
0.324	0.52059	0.38799
0.327	0.37103	0.49078
0.330	0.26946	0.61685
0.333	0.20810	0.73621
0.336	0.16923	0.84113
0.339	0.14267	0.93328
0.342	0.12340	1.01534
0.345	0.10878	1.08951
0.348	0.09730	1.15741
0.351	0.08807	1.22025
0.354	0.08049	1.27892
0.357	0.07416	1.33411
0.360	0.06881	1.38636
0.363	0.06423	1.43609
0.366	0.06027	1.48363
0.369	0.05683	1.52928
0.372	0.05381	1.57324
0.375	0.05115	1.61573
0.378	0.04879	1.65689
0.381	0.04668	1.69687
0.384	0.04480	1.73578
0.387	0.04310	1.77372
0.390	0.04158	1.81079
0.393	0.04020	1.84705
0.396	0.03895	1.88257
0.399	0.03781	1.91741
0.402	0.03678	1.95164
0.405	0.03583	1.98528
0.408	0.03497	2.01839
0.411	0.03418	2.05101
0.414	0.03345	2.08316
0.417	0.03279	2.11488
0.420	0.03218	2.14619
0.423	0.03162	2.17713
0.426	0.03111	2.20771
0.429	0.03064	2.23795
0.432	0.03020	2.26788
0.435	0.02980	2.29751
0.438	0.02944	2.32686
0.441	0.02910	2.35594
0.444	0.02879	2.38477
0.447	0.02851	2.41336
0.450	0.02825	2.44172
0.453	0.02802	2.46987
0.456	0.02780	2.49781
0.459	0.02761	2.52555
0.462	0.02743	2.55311
0.465	0.02727	2.58049
0.468	0.02713	2.60769
0.471	0.02700	2.63473
0.474	0.02689	2.66162
0.477	0.02679	2.68835
0.480	0.02670	2.71494
0.483	0.02663	2.74140
0.486	0.02656	2.76772
0.489	0.02651	2.79391
0.492	0.02647	2.81998
0.495	0.02644	2.84593
0.498	0.02642	2.87177
0.501	0.02640	2.89749
0.504	0.02640	2.92312
0.507	0.02640	2.94864
0.510	0.02641	2.97406
0.513	0.02643	2.99938
0.516	0.02646	3.02462
0.519	0.02649	3.04976
0.522	0.02653	3.07482
0.525	0.02657	3.09980
0.528	0.02662	3.12469
0.531	0.02668	3.14951
0.534	0.02675	3.17425
0.537	0.02681	3.19892
0.540	0.02689	3.22351
0.543	0.02697	3.24804
0.546	0.02705	3.27250
0.549	0.02714	3.29689
0.552	0.02723	3.32123
0.555	0.02733	3.34550
0.558	0.02743	3.36971
0.561	0.02754	3.39386
0.564	0.02765	3.41796
0.567	0.02776	3.44200
0.570	0.02788	3.46598
0.573	0.02800	3.48992
0.576	0.02813	3.51380
0.579	0.02826	3.53764
0.582	0.02839	3.56143
0.585	0.02852	3.58517
0.588	0.02866	3.60886
0.591	0.02881	3.63251
0.594	0.02895	3.65611
0.597	0.02910	3.67968
0.600	0.02925	3.70320
0.603	0.02940	3.72668
0.606	0.02956	3.75012
0.609	0.02972	3.77352
0.612	0.02988	3.79689
0.615	0.03005	3.82022
0.618	0.03022	3.84351
0.621	0.03039	3.86676
0.624	0.03056	3.88999
0.627	0.03074	3.91317
0.630	0.03091	3.93633
0.633	0.03109	3.95945
0.636	0.03128	3.98254
0.639	0.03146	4.00560
0.642	0.03165	4.02863
0.645	0.03184	4.05163
0.648	0.03203	4.07460
0.651	0.03223	4.09755
0.654	0.03242	4.12046
0.657	0.03262	4.14335
0.660	0.03282	4.16621
0.663	0.03302	4.18904
0.666	0.03323	4.21185
0.669	0.03343	4.23463
0.672	0.03364	4.25739
0.675	0.03385	4.28012
0.678	0.03407	4.30283
0.681	0.03428	4.32552
0.684	0.03450	4.34818
0.687	0.03471	4.37082
0.690	0.03493	4.39344
0.693	0.03516	4.41604
0.696	0.03538	4.43861
0.699	0.03561	4.46117
0.702	0.03583	4.48370
0.705	0.03606	4.50622
0.708	0.03629	4.52871
0.711	0.03653	4.55118
0.714	0.03676	4.57364
0.717	0.03700	4.59607
0.720	0.03723	4.61849
0.723	0.03747	4.64089
0.726	0.03771	4.66327
0.729	0.03796	4.68564
0.732	0.03820	4.70798
0.735	0.03845	4.73031
0.738	0.03869	4.75263
0.741	0.03894	4.77492
0.744	0.03919	4.79720
0.747	0.03945	4.81947
0.750	0.03970	4.84171
0.753	0.03996	4.86395
0.756	0.04021	4.88616
0.759	0.04047	4.90837
0.762	0.04073	4.93055
0.765	0.04099	4.95273
0.768	0.04126	4.97489
0.771	0.04152	4.99703
0.774	0.04179	5.01916
0.777	0.04205	5.04128
0.780	0.04232	5.06338
0.783	0.04259	5.08547
0.786	0.04287	5.10755
0.789	0.04314	5.12962
0.792	0.04341	5.15167
0.795	0.04369	5.17371
0.798	0.04397	5.19574
0.801	0.04425	5.21775
0.804	0.04453	5.23975
0.807	0.04481	5.26175
0.810	0.04509	5.28373
0.813	0.04538	5.30569
0.816	0.04566	5.32765
0.819	0.04595	5.34960
0.822	0.04624	5.37153
0.825	0.04653	5.39345
0.828	0.04682	5.41537
0.831	0.04712	5.43727
0.834	0.04741	5.45916
0.837	0.04771	5.48104
0.840	0.04800	5.50292
0.843	0.04830	5.52478
0.846	0.04860	5.54663
0.849	0.04890	5.56847
0.852	0.04921	5.59031
0.855	0.04951	5.61213
0.858	0.04981	5.63394
0.861	0.05012	5.65575
0.864	0.05043	5.67754
0.867	0.05074	5.69933
0.870	0.05105	5.72111
0.873	0.05136	5.74287
0.876	0.05167	5.76463
0.879	0.05199	5.78639
0.882	0.05230	5.80813
0.885	0.05262	5.82986
0.888	0.05294	5.85159
0.891	0.05326	5.87331
0.894	0.05358	5.89502
0.897	0.05390	5.91672
0.900	0.05423	5.93842
0.903	0.05455	5.96010
0.906	0.05488	5.98178
0.909	0.05520	6.00345
0.912	0.05553	6.02512
0.915	0.05586	6.04677
0.918	0.05619	6.06842
0.921	0.05653	6.09006
0.924	0.05686	6.11170
0.927	0.05719	6.13333
0.930	0.05753	6.15495
0.933	0.05787	6.17656
0.936	0.05821	6.19817
0.939	0.05855	6.21977
0.942	0.05889	6.24136
0.945	0.05923	6.26295
0.948	0.05957	6.28453
0.951	0.05992	6.30611
0.954	0.06027	6.32767
0.957	0.06061	6.34923
0.960	0.06096	6.37079
0.963	0.06131	6.39234
0.966	0.06166	6.41388
0.969	0.06202	6.43542
0.972	0.06237	6.45695
0.975	0.06272	6.47847
0.978	0.06308	6.49999
0.981	0.06344	6.52151
0.984	0.06380	6.54302
0.987	0.06416	6.56452
0.990	0.06452	6.58601
0.993	0.06488	6.60750
0.996	0.06524	6.62899
0.999	0.06561	6.65047
1.002	0.06597	6.67194
1.005	0.06634	6.69341
1.008	0.06671	6.71488
1.011	0.06708	6.73634
1.014	0.06745	6.75779
1.017	0.06782	6.77924
1.020	0.06819	6.80068
1.023	0.06857	6.82212
1.026	0.06894	6.84356
1.029	0.06932	6.86498
1.032	0.06970	6.88641
1.035	0.07008	6.90783
1.038	0.07046	6.92924
1.041	0.07084	6.95065
1.044	0.07122	6.97206
1.047	0.07161	6.99346
1.050	0.07199	7.01485
1.053	0.07238	7.03625
1.056	0.07276	7.05763
1.059	0.07315	7.07901
1.062	0.07354	7.10039
1.065	0.07393	7.12177
1.068	0.07433	7.14314
1.071	0.07472	7.16450
1.074	0.07511	7.18586
1.077	0.07551	7.20722
1.080	0.07591	7.22857
1.083	0.07631	7.24992
1.086	0.07671	7.27126
1.089	0.07711	7.29260
1.092	0.07751	7.31394
1.095	0.07791	7.33527
1.098	0.07831	7.35660
1.101	0.07872	7.37793
1.104	0.07913	7.39925
1.107	0.07953	7.42056
1.110	0.07994	7.44188
1.113	0.08035	7.46319
1.116	0.08076	7.48449
1.119	0.08118	7.50580
1.122	0.08159	7.52709
1.125	0.08201	7.54839
1.128	0.08242	7.56968
1.131	0.08284	7.59097
1.134	0.08326	7.61225
1.137	0.08368	7.63353
1.140	0.08410	7.65481
1.143	0.08452	7.67608
1.146	0.08494	7.69735
1.149	0.08537	7.71862
1.152	0.08579	7.73988
1.155	0.08622	7.76114
1.158	0.08664	7.78240
1.161	0.08707	7.80366
1.164	0.08750	7.82491
1.167	0.08793	7.84615
1.170	0.08837	7.86740
1.173	0.08880	7.88864
1.176	0.08923	7.90988
1.179	0.08967	7.93111
1.182	0.09011	7.95234
1.185	0.09055	7.97357
1.188	0.09098	7.99480
1.191	0.09143	8.01602
1.194	0.09187	8.03724
1.197	0.09231	8.05846
1.200	0.09275	8.07967
