Material: alloys / Au-Ag / Rioux-Au20Ag80
Optical constants. D. Rioux, S. Vallières, S. Besner, P. Muñoz, E. Mazur and M. Meunier. An analytic model for the dielectric function of Au, Ag, and their alloys, Adv. Opt. Mater. 2, 176-182 (2014) (See Supporting information for MATLAB model)
Comments: 20% Au, 80% Ag. Model fitted on ellipsometric measurements on five different AuAg alloy thin film compositions; Thin film compositions: Au, Au:Ag 2:1, Au:Ag 1:1, Au:Ag 1:2, Ag; Film thickness: 80 nm
wavelength (um)	n	k
0.270	1.28180	1.42404
0.273	1.29213	1.42684
0.276	1.30218	1.42856
0.279	1.31188	1.42915
0.282	1.32116	1.42858
0.285	1.32994	1.42679
0.288	1.33814	1.42376
0.291	1.34565	1.41945
0.294	1.35235	1.41383
0.297	1.35812	1.40687
0.300	1.36283	1.39858
0.303	1.36632	1.38896
0.306	1.36845	1.37803
0.309	1.36907	1.36585
0.312	1.36802	1.35246
0.315	1.36518	1.33796
0.318	1.36043	1.32242
0.321	1.35367	1.30595
0.324	1.34484	1.28860
0.327	1.33391	1.27037
0.330	1.32083	1.25121
0.333	1.30547	1.23089
0.336	1.28759	1.20908
0.339	1.26656	1.18529
0.342	1.24121	1.15907
0.345	1.20957	1.13054
0.348	1.16926	1.10116
0.351	1.11874	1.07411
0.354	1.05847	1.05317
0.357	0.99053	1.04130
0.360	0.91770	1.04034
0.363	0.84308	1.05118
0.366	0.76996	1.07364
0.369	0.70130	1.10626
0.372	0.63904	1.14670
0.375	0.58394	1.19240
0.378	0.53579	1.24122
0.381	0.49397	1.29159
0.384	0.45767	1.34245
0.387	0.42610	1.39312
0.390	0.39854	1.44316
0.393	0.37440	1.49234
0.396	0.35314	1.54052
0.399	0.33435	1.58765
0.402	0.31767	1.63371
0.405	0.30279	1.67872
0.408	0.28947	1.72271
0.411	0.27751	1.76573
0.414	0.26673	1.80782
0.417	0.25699	1.84904
0.420	0.24816	1.88942
0.423	0.24014	1.92901
0.426	0.23284	1.96787
0.429	0.22618	2.00604
0.432	0.22008	2.04355
0.435	0.21451	2.08044
0.438	0.20939	2.11675
0.441	0.20469	2.15252
0.444	0.20038	2.18777
0.447	0.19641	2.22253
0.450	0.19275	2.25683
0.453	0.18938	2.29069
0.456	0.18627	2.32414
0.459	0.18341	2.35720
0.462	0.18077	2.38988
0.465	0.17833	2.42222
0.468	0.17609	2.45421
0.471	0.17402	2.48589
0.474	0.17211	2.51727
0.477	0.17036	2.54835
0.480	0.16875	2.57916
0.483	0.16727	2.60971
0.486	0.16591	2.64001
0.489	0.16467	2.67006
0.492	0.16353	2.69989
0.495	0.16250	2.72949
0.498	0.16157	2.75888
0.501	0.16072	2.78807
0.504	0.15996	2.81707
0.507	0.15927	2.84588
0.510	0.15867	2.87451
0.513	0.15813	2.90297
0.516	0.15766	2.93126
0.519	0.15726	2.95939
0.522	0.15692	2.98737
0.525	0.15663	3.01520
0.528	0.15641	3.04289
0.531	0.15623	3.07044
0.534	0.15610	3.09786
0.537	0.15602	3.12515
0.540	0.15599	3.15232
0.543	0.15600	3.17936
0.546	0.15605	3.20629
0.549	0.15615	3.23311
0.552	0.15628	3.25982
0.555	0.15645	3.28642
0.558	0.15665	3.31293
0.561	0.15689	3.33933
0.564	0.15716	3.36564
0.567	0.15746	3.39185
0.570	0.15779	3.41798
0.573	0.15815	3.44402
0.576	0.15854	3.46997
0.579	0.15896	3.49584
0.582	0.15941	3.52163
0.585	0.15988	3.54734
0.588	0.16037	3.57298
0.591	0.16089	3.59854
0.594	0.16143	3.62403
0.597	0.16200	3.64945
0.600	0.16258	3.67480
0.603	0.16319	3.70009
0.606	0.16382	3.72531
0.609	0.16447	3.75047
0.612	0.16514	3.77557
0.615	0.16582	3.80061
0.618	0.16653	3.82559
0.621	0.16726	3.85051
0.624	0.16800	3.87538
0.627	0.16876	3.90019
0.630	0.16953	3.92495
0.633	0.17033	3.94966
0.636	0.17114	3.97432
0.639	0.17196	3.99893
0.642	0.17280	4.02349
0.645	0.17366	4.04800
0.648	0.17453	4.07247
0.651	0.17541	4.09689
0.654	0.17631	4.12127
0.657	0.17722	4.14561
0.660	0.17815	4.16990
0.663	0.17909	4.19415
0.666	0.18004	4.21836
0.669	0.18101	4.24253
0.672	0.18199	4.26667
0.675	0.18298	4.29076
0.678	0.18398	4.31482
0.681	0.18500	4.33884
0.684	0.18602	4.36282
0.687	0.18706	4.38677
0.690	0.18812	4.41069
0.693	0.18918	4.43457
0.696	0.19025	4.45842
0.699	0.19134	4.48224
0.702	0.19243	4.50602
0.705	0.19354	4.52977
0.708	0.19466	4.55350
0.711	0.19578	4.57719
0.714	0.19692	4.60085
0.717	0.19807	4.62449
0.720	0.19923	4.64809
0.723	0.20040	4.67167
0.726	0.20157	4.69522
0.729	0.20276	4.71874
0.732	0.20396	4.74224
0.735	0.20517	4.76571
0.738	0.20638	4.78915
0.741	0.20761	4.81257
0.744	0.20884	4.83597
0.747	0.21009	4.85934
0.750	0.21134	4.88268
0.753	0.21260	4.90600
0.756	0.21388	4.92930
0.759	0.21516	4.95258
0.762	0.21645	4.97583
0.765	0.21774	4.99907
0.768	0.21905	5.02228
0.771	0.22037	5.04546
0.774	0.22169	5.06863
0.777	0.22302	5.09178
0.780	0.22436	5.11490
0.783	0.22571	5.13801
0.786	0.22707	5.16110
0.789	0.22843	5.18416
0.792	0.22981	5.20721
0.795	0.23119	5.23024
0.798	0.23258	5.25325
0.801	0.23397	5.27624
0.804	0.23538	5.29921
0.807	0.23679	5.32217
0.810	0.23821	5.34510
0.813	0.23964	5.36802
0.816	0.24108	5.39092
0.819	0.24252	5.41381
0.822	0.24397	5.43668
0.825	0.24543	5.45953
0.828	0.24690	5.48237
0.831	0.24837	5.50519
0.834	0.24986	5.52799
0.837	0.25135	5.55078
0.840	0.25284	5.57355
0.843	0.25435	5.59631
0.846	0.25586	5.61906
0.849	0.25738	5.64178
0.852	0.25890	5.66450
0.855	0.26044	5.68720
0.858	0.26198	5.70988
0.861	0.26352	5.73255
0.864	0.26508	5.75521
0.867	0.26664	5.77785
0.870	0.26821	5.80048
0.873	0.26978	5.82310
0.876	0.27137	5.84570
0.879	0.27296	5.86829
0.882	0.27455	5.89087
0.885	0.27616	5.91343
0.888	0.27777	5.93599
0.891	0.27939	5.95852
0.894	0.28101	5.98105
0.897	0.28264	6.00357
0.900	0.28428	6.02607
0.903	0.28593	6.04856
0.906	0.28758	6.07104
0.909	0.28924	6.09351
0.912	0.29090	6.11596
0.915	0.29257	6.13841
0.918	0.29425	6.16084
0.921	0.29594	6.18326
0.924	0.29763	6.20567
0.927	0.29933	6.22807
0.930	0.30104	6.25046
0.933	0.30275	6.27284
0.936	0.30447	6.29521
0.939	0.30619	6.31757
0.942	0.30792	6.33991
0.945	0.30966	6.36225
0.948	0.31141	6.38458
0.951	0.31316	6.40689
0.954	0.31492	6.42920
0.957	0.31668	6.45150
0.960	0.31845	6.47378
0.963	0.32023	6.49606
0.966	0.32201	6.51833
0.969	0.32380	6.54059
0.972	0.32560	6.56284
0.975	0.32740	6.58508
0.978	0.32921	6.60731
0.981	0.33103	6.62953
0.984	0.33285	6.65175
0.987	0.33468	6.67395
0.990	0.33651	6.69614
0.993	0.33835	6.71833
0.996	0.34020	6.74051
0.999	0.34205	6.76268
1.002	0.34391	6.78484
1.005	0.34578	6.80699
1.008	0.34765	6.82914
1.011	0.34953	6.85127
1.014	0.35142	6.87340
1.017	0.35331	6.89552
1.020	0.35520	6.91763
1.023	0.35711	6.93973
1.026	0.35902	6.96183
1.029	0.36093	6.98392
1.032	0.36286	7.00600
1.035	0.36478	7.02807
1.038	0.36672	7.05013
1.041	0.36866	7.07219
1.044	0.37061	7.09424
1.047	0.37256	7.11628
1.050	0.37452	7.13831
1.053	0.37648	7.16034
1.056	0.37845	7.18236
1.059	0.38043	7.20437
1.062	0.38242	7.22638
1.065	0.38441	7.24838
1.068	0.38640	7.27037
1.071	0.38840	7.29235
1.074	0.39041	7.31433
1.077	0.39242	7.33630
1.080	0.39444	7.35826
1.083	0.39647	7.38022
1.086	0.39850	7.40217
1.089	0.40054	7.42411
1.092	0.40259	7.44605
1.095	0.40464	7.46798
1.098	0.40669	7.48990
1.101	0.40875	7.51182
1.104	0.41082	7.53373
1.107	0.41290	7.55564
1.110	0.41498	7.57753
1.113	0.41706	7.59942
1.116	0.41915	7.62131
1.119	0.42125	7.64319
1.122	0.42336	7.66506
1.125	0.42547	7.68693
1.128	0.42758	7.70879
1.131	0.42970	7.73064
1.134	0.43183	7.75249
1.137	0.43397	7.77433
1.140	0.43610	7.79617
1.143	0.43825	7.81800
1.146	0.44040	7.83983
1.149	0.44256	7.86164
1.152	0.44472	7.88346
1.155	0.44689	7.90527
1.158	0.44907	7.92707
1.161	0.45125	7.94886
1.164	0.45343	7.97065
1.167	0.45563	7.99244
1.170	0.45783	8.01422
1.173	0.46003	8.03599
1.176	0.46224	8.05776
1.179	0.46446	8.07952
1.182	0.46668	8.10128
1.185	0.46891	8.12303
1.188	0.47114	8.14478
1.191	0.47338	8.16652
1.194	0.47562	8.18825
1.197	0.47788	8.20999
1.200	0.48013	8.23171
