Material: alloys / Au-Ag / Rioux-Au50Ag50
Optical constants. D. Rioux, S. Vallières, S. Besner, P. Muñoz, E. Mazur and M. Meunier. An analytic model for the dielectric function of Au, Ag, and their alloys, Adv. Opt. Mater. 2, 176-182 (2014) (See Supporting information for MATLAB model)
Comments: 50% Au, 50% Ag. Model fitted on ellipsometric measurements on five different AuAg alloy thin film compositions; Thin film compositions: Au, Au:Ag 2:1, Au:Ag 1:1, Au:Ag 1:2, Ag; Film thickness: 80 nm
wavelength (um)	n	k
0.270	1.34272	1.55989
0.273	1.35152	1.56820
0.276	1.36008	1.57588
0.279	1.36837	1.58294
0.282	1.37635	1.58938
0.285	1.38400	1.59518
0.288	1.39128	1.60035
0.291	1.39816	1.60490
0.294	1.40459	1.60881
0.297	1.41054	1.61210
0.300	1.41596	1.61476
0.303	1.42082	1.61681
0.306	1.42506	1.61826
0.309	1.42864	1.61913
0.312	1.43151	1.61943
0.315	1.43362	1.61919
0.318	1.43491	1.61843
0.321	1.43535	1.61720
0.324	1.43488	1.61553
0.327	1.43345	1.61347
0.330	1.43103	1.61107
0.333	1.42756	1.60839
0.336	1.42302	1.60549
0.339	1.41738	1.60243
0.342	1.41061	1.59930
0.345	1.40269	1.59616
0.348	1.39363	1.59309
0.351	1.38343	1.59017
0.354	1.37208	1.58746
0.357	1.35962	1.58505
0.360	1.34608	1.58299
0.363	1.33147	1.58134
0.366	1.31584	1.58014
0.369	1.29923	1.57944
0.372	1.28167	1.57925
0.375	1.26318	1.57960
0.378	1.24380	1.58049
0.381	1.22352	1.58192
0.384	1.20234	1.58389
0.387	1.18021	1.58638
0.390	1.15708	1.58943
0.393	1.13286	1.59305
0.396	1.10743	1.59733
0.399	1.08070	1.60239
0.402	1.05255	1.60843
0.405	1.02291	1.61569
0.408	0.99180	1.62451
0.411	0.95931	1.63521
0.414	0.92569	1.64814
0.417	0.89123	1.66355
0.420	0.85634	1.68164
0.423	0.82145	1.70246
0.426	0.78698	1.72599
0.429	0.75334	1.75208
0.432	0.72084	1.78053
0.435	0.68978	1.81108
0.438	0.66034	1.84343
0.441	0.63266	1.87727
0.444	0.60681	1.91231
0.447	0.58278	1.94826
0.450	0.56055	1.98487
0.453	0.54003	2.02191
0.456	0.52112	2.05919
0.459	0.50373	2.09657
0.462	0.48772	2.13392
0.465	0.47299	2.17116
0.468	0.45943	2.20821
0.471	0.44693	2.24502
0.474	0.43540	2.28156
0.477	0.42475	2.31780
0.480	0.41490	2.35372
0.483	0.40579	2.38933
0.486	0.39734	2.42461
0.489	0.38951	2.45956
0.492	0.38224	2.49419
0.495	0.37548	2.52851
0.498	0.36920	2.56251
0.501	0.36336	2.59620
0.504	0.35792	2.62960
0.507	0.35286	2.66271
0.510	0.34814	2.69554
0.513	0.34375	2.72810
0.516	0.33966	2.76040
0.519	0.33586	2.79244
0.522	0.33231	2.82424
0.525	0.32901	2.85580
0.528	0.32594	2.88713
0.531	0.32308	2.91823
0.534	0.32043	2.94913
0.537	0.31797	2.97981
0.540	0.31569	3.01029
0.543	0.31358	3.04058
0.546	0.31163	3.07068
0.549	0.30983	3.10061
0.552	0.30817	3.13035
0.555	0.30665	3.15993
0.558	0.30526	3.18934
0.561	0.30400	3.21859
0.564	0.30284	3.24769
0.567	0.30181	3.27663
0.570	0.30087	3.30544
0.573	0.30004	3.33410
0.576	0.29930	3.36263
0.579	0.29866	3.39102
0.582	0.29810	3.41929
0.585	0.29763	3.44743
0.588	0.29724	3.47545
0.591	0.29693	3.50336
0.594	0.29669	3.53115
0.597	0.29652	3.55883
0.600	0.29642	3.58640
0.603	0.29639	3.61387
0.606	0.29642	3.64124
0.609	0.29651	3.66850
0.612	0.29666	3.69567
0.615	0.29686	3.72275
0.618	0.29713	3.74974
0.621	0.29744	3.77663
0.624	0.29781	3.80345
0.627	0.29822	3.83017
0.630	0.29868	3.85681
0.633	0.29919	3.88338
0.636	0.29975	3.90986
0.639	0.30034	3.93627
0.642	0.30098	3.96261
0.645	0.30167	3.98887
0.648	0.30239	4.01506
0.651	0.30315	4.04118
0.654	0.30394	4.06723
0.657	0.30477	4.09322
0.660	0.30564	4.11914
0.663	0.30655	4.14500
0.666	0.30748	4.17080
0.669	0.30845	4.19653
0.672	0.30946	4.22221
0.675	0.31049	4.24783
0.678	0.31155	4.27339
0.681	0.31264	4.29890
0.684	0.31377	4.32435
0.687	0.31492	4.34975
0.690	0.31610	4.37510
0.693	0.31730	4.40040
0.696	0.31853	4.42565
0.699	0.31979	4.45084
0.702	0.32107	4.47599
0.705	0.32238	4.50110
0.708	0.32372	4.52615
0.711	0.32507	4.55117
0.714	0.32645	4.57613
0.717	0.32786	4.60106
0.720	0.32928	4.62594
0.723	0.33073	4.65078
0.726	0.33220	4.67558
0.729	0.33369	4.70033
0.732	0.33520	4.72505
0.735	0.33674	4.74973
0.738	0.33829	4.77437
0.741	0.33986	4.79898
0.744	0.34146	4.82354
0.747	0.34307	4.84808
0.750	0.34470	4.87257
0.753	0.34635	4.89703
0.756	0.34802	4.92146
0.759	0.34971	4.94585
0.762	0.35141	4.97021
0.765	0.35314	4.99453
0.768	0.35488	5.01883
0.771	0.35663	5.04309
0.774	0.35841	5.06732
0.777	0.36020	5.09152
0.780	0.36201	5.11569
0.783	0.36383	5.13983
0.786	0.36568	5.16394
0.789	0.36753	5.18802
0.792	0.36941	5.21207
0.795	0.37130	5.23610
0.798	0.37320	5.26010
0.801	0.37512	5.28407
0.804	0.37705	5.30801
0.807	0.37900	5.33193
0.810	0.38097	5.35582
0.813	0.38295	5.37969
0.816	0.38494	5.40353
0.819	0.38695	5.42735
0.822	0.38897	5.45114
0.825	0.39101	5.47491
0.828	0.39306	5.49865
0.831	0.39513	5.52237
0.834	0.39720	5.54607
0.837	0.39930	5.56975
0.840	0.40140	5.59340
0.843	0.40352	5.61703
0.846	0.40565	5.64064
0.849	0.40780	5.66422
0.852	0.40996	5.68779
0.855	0.41213	5.71133
0.858	0.41431	5.73486
0.861	0.41651	5.75836
0.864	0.41872	5.78184
0.867	0.42094	5.80530
0.870	0.42318	5.82874
0.873	0.42543	5.85217
0.876	0.42769	5.87557
0.879	0.42996	5.89895
0.882	0.43224	5.92232
0.885	0.43454	5.94567
0.888	0.43685	5.96899
0.891	0.43917	5.99230
0.894	0.44150	6.01560
0.897	0.44385	6.03887
0.900	0.44620	6.06213
0.903	0.44857	6.08537
0.906	0.45095	6.10859
0.909	0.45334	6.13179
0.912	0.45574	6.15498
0.915	0.45815	6.17815
0.918	0.46058	6.20131
0.921	0.46302	6.22445
0.924	0.46546	6.24757
0.927	0.46792	6.27067
0.930	0.47039	6.29377
0.933	0.47287	6.31684
0.936	0.47536	6.33990
0.939	0.47787	6.36294
0.942	0.48038	6.38597
0.945	0.48290	6.40899
0.948	0.48544	6.43199
0.951	0.48799	6.45497
0.954	0.49054	6.47794
0.957	0.49311	6.50090
0.960	0.49569	6.52384
0.963	0.49828	6.54677
0.966	0.50088	6.56968
0.969	0.50349	6.59258
0.972	0.50611	6.61547
0.975	0.50874	6.63834
0.978	0.51138	6.66120
0.981	0.51403	6.68404
0.984	0.51669	6.70687
0.987	0.51936	6.72969
0.990	0.52205	6.75250
0.993	0.52474	6.77529
0.996	0.52744	6.79807
0.999	0.53015	6.82084
1.002	0.53288	6.84359
1.005	0.53561	6.86634
1.008	0.53835	6.88907
1.011	0.54110	6.91179
1.014	0.54387	6.93449
1.017	0.54664	6.95718
1.020	0.54942	6.97987
1.023	0.55221	7.00254
1.026	0.55502	7.02520
1.029	0.55783	7.04784
1.032	0.56065	7.07048
1.035	0.56348	7.09310
1.038	0.56632	7.11571
1.041	0.56918	7.13831
1.044	0.57204	7.16090
1.047	0.57491	7.18348
1.050	0.57779	7.20605
1.053	0.58068	7.22861
1.056	0.58358	7.25115
1.059	0.58648	7.27369
1.062	0.58940	7.29621
1.065	0.59233	7.31872
1.068	0.59527	7.34123
1.071	0.59821	7.36372
1.074	0.60117	7.38620
1.077	0.60414	7.40867
1.080	0.60711	7.43113
1.083	0.61009	7.45359
1.086	0.61309	7.47603
1.089	0.61609	7.49846
1.092	0.61910	7.52088
1.095	0.62213	7.54329
1.098	0.62516	7.56569
1.101	0.62820	7.58808
1.104	0.63125	7.61046
1.107	0.63430	7.63284
1.110	0.63737	7.65520
1.113	0.64045	7.67755
1.116	0.64354	7.69989
1.119	0.64663	7.72223
1.122	0.64973	7.74455
1.125	0.65285	7.76687
1.128	0.65597	7.78917
1.131	0.65910	7.81147
1.134	0.66224	7.83376
1.137	0.66539	7.85604
1.140	0.66855	7.87831
1.143	0.67172	7.90057
1.146	0.67490	7.92282
1.149	0.67808	7.94506
1.152	0.68128	7.96729
1.155	0.68448	7.98952
1.158	0.68769	8.01174
1.161	0.69091	8.03394
1.164	0.69414	8.05614
1.167	0.69738	8.07833
1.170	0.70063	8.10051
1.173	0.70389	8.12269
1.176	0.70715	8.14485
1.179	0.71043	8.16701
1.182	0.71371	8.18916
1.185	0.71700	8.21129
1.188	0.72030	8.23343
1.191	0.72361	8.25555
1.194	0.72693	8.27766
1.197	0.73026	8.29977
1.200	0.73359	8.32187
