Material: alloys / Au-Ag / Rioux-Au30Ag70
Optical constants. D. Rioux, S. Vallières, S. Besner, P. Muñoz, E. Mazur and M. Meunier. An analytic model for the dielectric function of Au, Ag, and their alloys, Adv. Opt. Mater. 2, 176-182 (2014) (See Supporting information for MATLAB model)
Comments: 30% Au, 70% Ag. Model fitted on ellipsometric measurements on five different AuAg alloy thin film compositions; Thin film compositions: Au, Au:Ag 2:1, Au:Ag 1:1, Au:Ag 1:2, Ag; Film thickness: 80 nm
wavelength (um)	n	k
0.270	1.29951	1.47395
0.273	1.30854	1.47939
0.276	1.31729	1.48403
0.279	1.32569	1.48783
0.282	1.33372	1.49079
0.285	1.34132	1.49289
0.288	1.34842	1.49412
0.291	1.35498	1.49447
0.294	1.36091	1.49393
0.297	1.36616	1.49250
0.300	1.37064	1.49018
0.303	1.37427	1.48698
0.306	1.37696	1.48292
0.309	1.37864	1.47803
0.312	1.37920	1.47234
0.315	1.37856	1.46590
0.318	1.37664	1.45877
0.321	1.37334	1.45102
0.324	1.36860	1.44272
0.327	1.36235	1.43397
0.330	1.35454	1.42486
0.333	1.34512	1.41548
0.336	1.33408	1.40590
0.339	1.32140	1.39621
0.342	1.30706	1.38646
0.345	1.29105	1.37666
0.348	1.27333	1.36681
0.351	1.25382	1.35687
0.354	1.23235	1.34677
0.357	1.20864	1.33646
0.360	1.18226	1.32595
0.363	1.15262	1.31545
0.366	1.11906	1.30547
0.369	1.08102	1.29696
0.372	1.03836	1.29119
0.375	0.99149	1.28955
0.378	0.94135	1.29319
0.381	0.88924	1.30284
0.384	0.83654	1.31877
0.387	0.78464	1.34085
0.390	0.73476	1.36853
0.393	0.68785	1.40101
0.396	0.64452	1.43728
0.399	0.60504	1.47634
0.402	0.56938	1.51729
0.405	0.53731	1.55938
0.408	0.50854	1.60206
0.411	0.48273	1.64493
0.414	0.45952	1.68770
0.417	0.43863	1.73020
0.420	0.41977	1.77228
0.423	0.40271	1.81388
0.426	0.38724	1.85493
0.429	0.37316	1.89543
0.432	0.36034	1.93535
0.435	0.34863	1.97470
0.438	0.33791	2.01348
0.441	0.32808	2.05171
0.444	0.31906	2.08941
0.447	0.31076	2.12659
0.450	0.30311	2.16326
0.453	0.29606	2.19946
0.456	0.28955	2.23519
0.459	0.28354	2.27048
0.462	0.27797	2.30535
0.465	0.27282	2.33981
0.468	0.26805	2.37389
0.471	0.26363	2.40759
0.474	0.25953	2.44094
0.477	0.25573	2.47395
0.480	0.25220	2.50663
0.483	0.24894	2.53900
0.486	0.24591	2.57107
0.489	0.24310	2.60285
0.492	0.24050	2.63436
0.495	0.23809	2.66561
0.498	0.23586	2.69660
0.501	0.23381	2.72735
0.504	0.23191	2.75787
0.507	0.23016	2.78817
0.510	0.22855	2.81825
0.513	0.22707	2.84812
0.516	0.22572	2.87780
0.519	0.22449	2.90728
0.522	0.22336	2.93658
0.525	0.22235	2.96570
0.528	0.22143	2.99464
0.531	0.22060	3.02343
0.534	0.21987	3.05205
0.537	0.21922	3.08052
0.540	0.21866	3.10884
0.543	0.21817	3.13701
0.546	0.21775	3.16505
0.549	0.21741	3.19295
0.552	0.21713	3.22072
0.555	0.21691	3.24837
0.558	0.21676	3.27589
0.561	0.21667	3.30330
0.564	0.21663	3.33059
0.567	0.21665	3.35777
0.570	0.21672	3.38484
0.573	0.21684	3.41181
0.576	0.21701	3.43867
0.579	0.21722	3.46544
0.582	0.21748	3.49211
0.585	0.21778	3.51869
0.588	0.21812	3.54517
0.591	0.21851	3.57157
0.594	0.21893	3.59789
0.597	0.21939	3.62412
0.600	0.21988	3.65027
0.603	0.22041	3.67634
0.606	0.22098	3.70233
0.609	0.22157	3.72825
0.612	0.22220	3.75410
0.615	0.22286	3.77987
0.618	0.22355	3.80558
0.621	0.22427	3.83122
0.624	0.22502	3.85679
0.627	0.22579	3.88230
0.630	0.22659	3.90774
0.633	0.22742	3.93313
0.636	0.22827	3.95845
0.639	0.22915	3.98372
0.642	0.23005	4.00893
0.645	0.23098	4.03408
0.648	0.23193	4.05918
0.651	0.23290	4.08423
0.654	0.23389	4.10922
0.657	0.23490	4.13416
0.660	0.23594	4.15906
0.663	0.23699	4.18390
0.666	0.23807	4.20870
0.669	0.23916	4.23345
0.672	0.24028	4.25815
0.675	0.24141	4.28281
0.678	0.24256	4.30743
0.681	0.24374	4.33200
0.684	0.24492	4.35653
0.687	0.24613	4.38102
0.690	0.24735	4.40547
0.693	0.24859	4.42987
0.696	0.24985	4.45424
0.699	0.25112	4.47858
0.702	0.25241	4.50287
0.705	0.25372	4.52713
0.708	0.25504	4.55135
0.711	0.25637	4.57554
0.714	0.25772	4.59969
0.717	0.25909	4.62381
0.720	0.26047	4.64789
0.723	0.26186	4.67194
0.726	0.26327	4.69596
0.729	0.26470	4.71995
0.732	0.26613	4.74390
0.735	0.26758	4.76783
0.738	0.26905	4.79172
0.741	0.27053	4.81559
0.744	0.27202	4.83943
0.747	0.27352	4.86324
0.750	0.27504	4.88702
0.753	0.27657	4.91077
0.756	0.27811	4.93449
0.759	0.27967	4.95819
0.762	0.28123	4.98186
0.765	0.28281	5.00551
0.768	0.28440	5.02913
0.771	0.28601	5.05273
0.774	0.28762	5.07630
0.777	0.28925	5.09984
0.780	0.29089	5.12337
0.783	0.29254	5.14687
0.786	0.29420	5.17034
0.789	0.29587	5.19379
0.792	0.29756	5.21723
0.795	0.29925	5.24063
0.798	0.30096	5.26402
0.801	0.30268	5.28738
0.804	0.30441	5.31073
0.807	0.30614	5.33405
0.810	0.30789	5.35735
0.813	0.30965	5.38063
0.816	0.31142	5.40389
0.819	0.31321	5.42714
0.822	0.31500	5.45036
0.825	0.31680	5.47356
0.828	0.31861	5.49674
0.831	0.32043	5.51991
0.834	0.32227	5.54306
0.837	0.32411	5.56618
0.840	0.32596	5.58929
0.843	0.32782	5.61239
0.846	0.32969	5.63546
0.849	0.33158	5.65852
0.852	0.33347	5.68156
0.855	0.33537	5.70458
0.858	0.33728	5.72759
0.861	0.33920	5.75058
0.864	0.34113	5.77355
0.867	0.34307	5.79651
0.870	0.34502	5.81945
0.873	0.34698	5.84237
0.876	0.34895	5.86528
0.879	0.35092	5.88818
0.882	0.35291	5.91106
0.885	0.35490	5.93392
0.888	0.35691	5.95677
0.891	0.35892	5.97961
0.894	0.36095	6.00243
0.897	0.36298	6.02524
0.900	0.36502	6.04803
0.903	0.36707	6.07081
0.906	0.36913	6.09357
0.909	0.37119	6.11632
0.912	0.37327	6.13906
0.915	0.37536	6.16178
0.918	0.37745	6.18449
0.921	0.37955	6.20719
0.924	0.38167	6.22988
0.927	0.38379	6.25255
0.930	0.38591	6.27521
0.933	0.38805	6.29785
0.936	0.39020	6.32049
0.939	0.39235	6.34311
0.942	0.39452	6.36572
0.945	0.39669	6.38832
0.948	0.39887	6.41090
0.951	0.40106	6.43347
0.954	0.40326	6.45604
0.957	0.40546	6.47859
0.960	0.40768	6.50112
0.963	0.40990	6.52365
0.966	0.41213	6.54617
0.969	0.41437	6.56867
0.972	0.41662	6.59117
0.975	0.41887	6.61365
0.978	0.42113	6.63612
0.981	0.42341	6.65858
0.984	0.42569	6.68103
0.987	0.42798	6.70347
0.990	0.43027	6.72590
0.993	0.43258	6.74832
0.996	0.43489	6.77073
0.999	0.43721	6.79313
1.002	0.43954	6.81552
1.005	0.44188	6.83789
1.008	0.44422	6.86026
1.011	0.44658	6.88262
1.014	0.44894	6.90497
1.017	0.45131	6.92731
1.020	0.45369	6.94964
1.023	0.45607	6.97196
1.026	0.45846	6.99427
1.029	0.46087	7.01657
1.032	0.46327	7.03886
1.035	0.46569	7.06114
1.038	0.46812	7.08342
1.041	0.47055	7.10568
1.044	0.47299	7.12794
1.047	0.47544	7.15018
1.050	0.47790	7.17242
1.053	0.48036	7.19465
1.056	0.48283	7.21687
1.059	0.48531	7.23908
1.062	0.48780	7.26128
1.065	0.49029	7.28348
1.068	0.49280	7.30566
1.071	0.49531	7.32784
1.074	0.49783	7.35001
1.077	0.50035	7.37217
1.080	0.50289	7.39432
1.083	0.50543	7.41646
1.086	0.50798	7.43860
1.089	0.51053	7.46073
1.092	0.51310	7.48285
1.095	0.51567	7.50496
1.098	0.51825	7.52706
1.101	0.52084	7.54916
1.104	0.52343	7.57125
1.107	0.52604	7.59333
1.110	0.52865	7.61540
1.113	0.53126	7.63746
1.116	0.53389	7.65952
1.119	0.53652	7.68157
1.122	0.53916	7.70361
1.125	0.54181	7.72565
1.128	0.54446	7.74767
1.131	0.54713	7.76969
1.134	0.54980	7.79171
1.137	0.55248	7.81371
1.140	0.55516	7.83571
1.143	0.55785	7.85770
1.146	0.56055	7.87968
1.149	0.56326	7.90166
1.152	0.56598	7.92363
1.155	0.56870	7.94559
1.158	0.57143	7.96755
1.161	0.57417	7.98950
1.164	0.57691	8.01144
1.167	0.57966	8.03337
1.170	0.58242	8.05530
1.173	0.58519	8.07722
1.176	0.58797	8.09913
1.179	0.59075	8.12104
1.182	0.59354	8.14294
1.185	0.59633	8.16484
1.188	0.59914	8.18672
1.191	0.60195	8.20860
1.194	0.60477	8.23048
1.197	0.60759	8.25235
1.200	0.61042	8.27421
