Material: alloys / Au-Ag / Rioux-Au60Ag40
Optical constants. D. Rioux, S. Vallières, S. Besner, P. Muñoz, E. Mazur and M. Meunier. An analytic model for the dielectric function of Au, Ag, and their alloys, Adv. Opt. Mater. 2, 176-182 (2014) (See Supporting information for MATLAB model)
Comments: 60% Au, 40% Ag. Model fitted on ellipsometric measurements on five different AuAg alloy thin film compositions; Thin film compositions: Au, Au:Ag 2:1, Au:Ag 1:1, Au:Ag 1:2, Ag; Film thickness: 80 nm
wavelength (um)	n	k
0.270	1.36534	1.60436
0.273	1.37475	1.61353
0.276	1.38396	1.62211
0.279	1.39293	1.63009
0.282	1.40164	1.63747
0.285	1.41005	1.64424
0.288	1.41814	1.65040
0.291	1.42588	1.65596
0.294	1.43323	1.66091
0.297	1.44016	1.66526
0.300	1.44663	1.66901
0.303	1.45260	1.67216
0.306	1.45803	1.67473
0.309	1.46287	1.67672
0.312	1.46710	1.67816
0.315	1.47065	1.67905
0.318	1.47349	1.67943
0.321	1.47557	1.67933
0.324	1.47684	1.67877
0.327	1.47727	1.67779
0.330	1.47680	1.67644
0.333	1.47541	1.67476
0.336	1.47305	1.67281
0.339	1.46969	1.67065
0.342	1.46531	1.66834
0.345	1.45989	1.66595
0.348	1.45341	1.66354
0.351	1.44586	1.66120
0.354	1.43727	1.65898
0.357	1.42762	1.65697
0.360	1.41695	1.65523
0.363	1.40529	1.65382
0.366	1.39266	1.65281
0.369	1.37912	1.65224
0.372	1.36470	1.65215
0.375	1.34946	1.65259
0.378	1.33344	1.65356
0.381	1.31669	1.65509
0.384	1.29925	1.65717
0.387	1.28116	1.65980
0.390	1.26244	1.66296
0.393	1.24310	1.66662
0.396	1.22313	1.67077
0.399	1.20252	1.67539
0.402	1.18122	1.68045
0.405	1.15917	1.68595
0.408	1.13629	1.69193
0.411	1.11248	1.69842
0.414	1.08764	1.70553
0.417	1.06168	1.71338
0.420	1.03454	1.72216
0.423	1.00618	1.73210
0.426	0.97666	1.74346
0.429	0.94607	1.75650
0.432	0.91462	1.77147
0.435	0.88256	1.78855
0.438	0.85020	1.80787
0.441	0.81787	1.82949
0.444	0.78589	1.85339
0.447	0.75457	1.87946
0.450	0.72418	1.90756
0.453	0.69495	1.93751
0.456	0.66705	1.96908
0.459	0.64061	2.00204
0.462	0.61571	2.03616
0.465	0.59237	2.07122
0.468	0.57061	2.10699
0.471	0.55038	2.14329
0.474	0.53164	2.17994
0.477	0.51431	2.21679
0.480	0.49830	2.25372
0.483	0.48352	2.29063
0.486	0.46989	2.32744
0.489	0.45731	2.36408
0.492	0.44571	2.40050
0.495	0.43498	2.43668
0.498	0.42507	2.47259
0.501	0.41590	2.50820
0.504	0.40742	2.54352
0.507	0.39955	2.57852
0.510	0.39226	2.61322
0.513	0.38549	2.64761
0.516	0.37921	2.68170
0.519	0.37337	2.71550
0.522	0.36794	2.74899
0.525	0.36289	2.78221
0.528	0.35820	2.81515
0.531	0.35383	2.84781
0.534	0.34976	2.88022
0.537	0.34598	2.91237
0.540	0.34246	2.94428
0.543	0.33919	2.97595
0.546	0.33614	3.00739
0.549	0.33332	3.03860
0.552	0.33070	3.06961
0.555	0.32826	3.10040
0.558	0.32601	3.13099
0.561	0.32393	3.16139
0.564	0.32201	3.19161
0.567	0.32023	3.22164
0.570	0.31860	3.25149
0.573	0.31711	3.28117
0.576	0.31574	3.31069
0.579	0.31450	3.34005
0.582	0.31337	3.36926
0.585	0.31235	3.39832
0.588	0.31144	3.42723
0.591	0.31063	3.45600
0.594	0.30991	3.48463
0.597	0.30929	3.51314
0.600	0.30875	3.54151
0.603	0.30829	3.56976
0.606	0.30792	3.59789
0.609	0.30762	3.62590
0.612	0.30740	3.65380
0.615	0.30724	3.68159
0.618	0.30716	3.70927
0.621	0.30714	3.73685
0.624	0.30718	3.76432
0.627	0.30728	3.79170
0.630	0.30744	3.81898
0.633	0.30766	3.84616
0.636	0.30793	3.87325
0.639	0.30826	3.90026
0.642	0.30863	3.92718
0.645	0.30905	3.95401
0.648	0.30953	3.98076
0.651	0.31004	4.00744
0.654	0.31060	4.03403
0.657	0.31121	4.06054
0.660	0.31186	4.08699
0.663	0.31254	4.11336
0.666	0.31327	4.13965
0.669	0.31403	4.16588
0.672	0.31484	4.19204
0.675	0.31568	4.21814
0.678	0.31655	4.24417
0.681	0.31746	4.27014
0.684	0.31840	4.29604
0.687	0.31937	4.32189
0.690	0.32038	4.34767
0.693	0.32142	4.37340
0.696	0.32248	4.39907
0.699	0.32358	4.42468
0.702	0.32471	4.45024
0.705	0.32586	4.47575
0.708	0.32704	4.50121
0.711	0.32825	4.52661
0.714	0.32948	4.55197
0.717	0.33074	4.57727
0.720	0.33203	4.60253
0.723	0.33334	4.62774
0.726	0.33467	4.65290
0.729	0.33603	4.67802
0.732	0.33742	4.70310
0.735	0.33882	4.72813
0.738	0.34025	4.75311
0.741	0.34170	4.77806
0.744	0.34317	4.80296
0.747	0.34466	4.82783
0.750	0.34618	4.85265
0.753	0.34771	4.87744
0.756	0.34926	4.90219
0.759	0.35084	4.92690
0.762	0.35243	4.95157
0.765	0.35405	4.97620
0.768	0.35568	5.00080
0.771	0.35733	5.02537
0.774	0.35900	5.04990
0.777	0.36069	5.07440
0.780	0.36239	5.09886
0.783	0.36412	5.12329
0.786	0.36586	5.14769
0.789	0.36762	5.17206
0.792	0.36939	5.19639
0.795	0.37118	5.22069
0.798	0.37299	5.24497
0.801	0.37482	5.26921
0.804	0.37666	5.29343
0.807	0.37852	5.31761
0.810	0.38039	5.34177
0.813	0.38228	5.36590
0.816	0.38418	5.39000
0.819	0.38610	5.41408
0.822	0.38803	5.43812
0.825	0.38998	5.46214
0.828	0.39195	5.48614
0.831	0.39393	5.51011
0.834	0.39592	5.53405
0.837	0.39793	5.55797
0.840	0.39995	5.58187
0.843	0.40199	5.60574
0.846	0.40404	5.62958
0.849	0.40610	5.65341
0.852	0.40818	5.67721
0.855	0.41027	5.70098
0.858	0.41237	5.72474
0.861	0.41449	5.74847
0.864	0.41662	5.77218
0.867	0.41876	5.79586
0.870	0.42092	5.81953
0.873	0.42309	5.84317
0.876	0.42527	5.86680
0.879	0.42747	5.89040
0.882	0.42968	5.91398
0.885	0.43190	5.93755
0.888	0.43413	5.96109
0.891	0.43638	5.98461
0.894	0.43863	6.00811
0.897	0.44090	6.03160
0.900	0.44319	6.05506
0.903	0.44548	6.07851
0.906	0.44779	6.10194
0.909	0.45010	6.12535
0.912	0.45243	6.14874
0.915	0.45478	6.17211
0.918	0.45713	6.19547
0.921	0.45949	6.21881
0.924	0.46187	6.24213
0.927	0.46426	6.26543
0.930	0.46666	6.28872
0.933	0.46907	6.31199
0.936	0.47149	6.33524
0.939	0.47392	6.35848
0.942	0.47637	6.38170
0.945	0.47882	6.40490
0.948	0.48129	6.42809
0.951	0.48376	6.45126
0.954	0.48625	6.47442
0.957	0.48875	6.49756
0.960	0.49126	6.52069
0.963	0.49378	6.54380
0.966	0.49631	6.56690
0.969	0.49885	6.58998
0.972	0.50141	6.61305
0.975	0.50397	6.63610
0.978	0.50654	6.65914
0.981	0.50913	6.68216
0.984	0.51172	6.70517
0.987	0.51433	6.72817
0.990	0.51694	6.75115
0.993	0.51957	6.77412
0.996	0.52221	6.79707
0.999	0.52485	6.82001
1.002	0.52751	6.84294
1.005	0.53018	6.86586
1.008	0.53285	6.88876
1.011	0.53554	6.91165
1.014	0.53824	6.93452
1.017	0.54094	6.95739
1.020	0.54366	6.98024
1.023	0.54639	7.00308
1.026	0.54912	7.02590
1.029	0.55187	7.04872
1.032	0.55463	7.07152
1.035	0.55739	7.09431
1.038	0.56017	7.11708
1.041	0.56296	7.13985
1.044	0.56575	7.16260
1.047	0.56856	7.18534
1.050	0.57137	7.20807
1.053	0.57420	7.23079
1.056	0.57703	7.25350
1.059	0.57988	7.27619
1.062	0.58273	7.29888
1.065	0.58560	7.32155
1.068	0.58847	7.34421
1.071	0.59135	7.36686
1.074	0.59424	7.38950
1.077	0.59714	7.41213
1.080	0.60006	7.43475
1.083	0.60298	7.45736
1.086	0.60591	7.47995
1.089	0.60884	7.50254
1.092	0.61179	7.52511
1.095	0.61475	7.54768
1.098	0.61772	7.57023
1.101	0.62069	7.59278
1.104	0.62368	7.61531
1.107	0.62667	7.63784
1.110	0.62968	7.66035
1.113	0.63269	7.68286
1.116	0.63571	7.70535
1.119	0.63874	7.72784
1.122	0.64178	7.75031
1.125	0.64483	7.77278
1.128	0.64789	7.79523
1.131	0.65096	7.81768
1.134	0.65404	7.84011
1.137	0.65712	7.86254
1.140	0.66022	7.88496
1.143	0.66332	7.90737
1.146	0.66643	7.92976
1.149	0.66956	7.95215
1.152	0.67269	7.97453
1.155	0.67583	7.99690
1.158	0.67898	8.01927
1.161	0.68213	8.04162
1.164	0.68530	8.06396
1.167	0.68847	8.08630
1.170	0.69166	8.10862
1.173	0.69485	8.13094
1.176	0.69805	8.15325
1.179	0.70126	8.17555
1.182	0.70448	8.19784
1.185	0.70771	8.22012
1.188	0.71095	8.24240
1.191	0.71419	8.26466
1.194	0.71745	8.28692
1.197	0.72071	8.30917
1.200	0.72398	8.33141
