Material: alloys / Au-Ag / Rioux-Au90Ag10
Optical constants. D. Rioux, S. Vallières, S. Besner, P. Muñoz, E. Mazur and M. Meunier. An analytic model for the dielectric function of Au, Ag, and their alloys, Adv. Opt. Mater. 2, 176-182 (2014) (See Supporting information for MATLAB model)
Comments: 90% Au, 10% Ag. Model fitted on ellipsometric measurements on five different AuAg alloy thin film compositions; Thin film compositions: Au, Au:Ag 2:1, Au:Ag 1:1, Au:Ag 1:2, Ag; Film thickness: 80 nm
wavelength (um)	n	k
0.270	1.43031	1.77249
0.273	1.44378	1.78360
0.276	1.45719	1.79405
0.279	1.47053	1.80382
0.282	1.48375	1.81289
0.285	1.49685	1.82125
0.288	1.50978	1.82888
0.291	1.52252	1.83577
0.294	1.53502	1.84189
0.297	1.54725	1.84724
0.300	1.55917	1.85181
0.303	1.57072	1.85556
0.306	1.58185	1.85851
0.309	1.59250	1.86064
0.312	1.60260	1.86194
0.315	1.61208	1.86244
0.318	1.62088	1.86212
0.321	1.62890	1.86103
0.324	1.63607	1.85918
0.327	1.64229	1.85663
0.330	1.64749	1.85343
0.333	1.65157	1.84966
0.336	1.65446	1.84541
0.339	1.65610	1.84079
0.342	1.65642	1.83591
0.345	1.65541	1.83093
0.348	1.65304	1.82599
0.351	1.64934	1.82123
0.354	1.64434	1.81681
0.357	1.63812	1.81288
0.360	1.63078	1.80956
0.363	1.62245	1.80695
0.366	1.61325	1.80514
0.369	1.60333	1.80418
0.372	1.59286	1.80409
0.375	1.58198	1.80486
0.378	1.57083	1.80647
0.381	1.55954	1.80884
0.384	1.54822	1.81192
0.387	1.53696	1.81560
0.390	1.52584	1.81977
0.393	1.51491	1.82435
0.396	1.50420	1.82919
0.399	1.49374	1.83420
0.402	1.48351	1.83926
0.405	1.47350	1.84424
0.408	1.46368	1.84904
0.411	1.45400	1.85356
0.414	1.44438	1.85768
0.417	1.43476	1.86131
0.420	1.42503	1.86436
0.423	1.41508	1.86675
0.426	1.40477	1.86838
0.429	1.39396	1.86922
0.432	1.38246	1.86920
0.435	1.37009	1.86830
0.438	1.35660	1.86653
0.441	1.34178	1.86394
0.444	1.32535	1.86060
0.447	1.30705	1.85666
0.450	1.28664	1.85234
0.453	1.26386	1.84792
0.456	1.23854	1.84375
0.459	1.21056	1.84022
0.462	1.17988	1.83781
0.465	1.14656	1.83696
0.468	1.11079	1.83815
0.471	1.07282	1.84179
0.474	1.03300	1.84824
0.477	0.99177	1.85778
0.480	0.94957	1.87059
0.483	0.90689	1.88678
0.486	0.86420	1.90634
0.489	0.82196	1.92918
0.492	0.78060	1.95516
0.495	0.74049	1.98403
0.498	0.70193	2.01553
0.501	0.66517	2.04934
0.504	0.63038	2.08514
0.507	0.59768	2.12260
0.510	0.56713	2.16139
0.513	0.53872	2.20121
0.516	0.51241	2.24179
0.519	0.48814	2.28288
0.522	0.46580	2.32426
0.525	0.44528	2.36577
0.528	0.42645	2.40724
0.531	0.40919	2.44857
0.534	0.39337	2.48965
0.537	0.37886	2.53041
0.540	0.36556	2.57081
0.543	0.35336	2.61080
0.546	0.34214	2.65036
0.549	0.33183	2.68947
0.552	0.32234	2.72812
0.555	0.31359	2.76632
0.558	0.30552	2.80407
0.561	0.29806	2.84137
0.564	0.29116	2.87823
0.567	0.28477	2.91467
0.570	0.27885	2.95069
0.573	0.27336	2.98631
0.576	0.26826	3.02155
0.579	0.26352	3.05641
0.582	0.25910	3.09091
0.585	0.25500	3.12507
0.588	0.25117	3.15889
0.591	0.24761	3.19239
0.594	0.24429	3.22558
0.597	0.24119	3.25847
0.600	0.23829	3.29108
0.603	0.23559	3.32342
0.606	0.23308	3.35549
0.609	0.23073	3.38731
0.612	0.22853	3.41889
0.615	0.22649	3.45023
0.618	0.22458	3.48134
0.621	0.22281	3.51224
0.624	0.22115	3.54293
0.627	0.21961	3.57342
0.630	0.21818	3.60371
0.633	0.21686	3.63381
0.636	0.21562	3.66374
0.639	0.21448	3.69349
0.642	0.21343	3.72307
0.645	0.21246	3.75249
0.648	0.21157	3.78175
0.651	0.21075	3.81086
0.654	0.21000	3.83982
0.657	0.20932	3.86864
0.660	0.20870	3.89732
0.663	0.20814	3.92587
0.666	0.20765	3.95429
0.669	0.20720	3.98258
0.672	0.20682	4.01075
0.675	0.20648	4.03881
0.678	0.20619	4.06674
0.681	0.20595	4.09457
0.684	0.20575	4.12229
0.687	0.20559	4.14991
0.690	0.20548	4.17743
0.693	0.20541	4.20484
0.696	0.20537	4.23216
0.699	0.20538	4.25939
0.702	0.20541	4.28652
0.705	0.20549	4.31357
0.708	0.20559	4.34053
0.711	0.20573	4.36741
0.714	0.20590	4.39421
0.717	0.20610	4.42092
0.720	0.20633	4.44756
0.723	0.20658	4.47412
0.726	0.20686	4.50061
0.729	0.20717	4.52703
0.732	0.20751	4.55338
0.735	0.20787	4.57966
0.738	0.20825	4.60587
0.741	0.20866	4.63202
0.744	0.20909	4.65810
0.747	0.20954	4.68412
0.750	0.21001	4.71008
0.753	0.21050	4.73598
0.756	0.21102	4.76182
0.759	0.21155	4.78761
0.762	0.21211	4.81334
0.765	0.21268	4.83902
0.768	0.21327	4.86464
0.771	0.21388	4.89021
0.774	0.21451	4.91573
0.777	0.21515	4.94120
0.780	0.21581	4.96662
0.783	0.21649	4.99199
0.786	0.21718	5.01732
0.789	0.21789	5.04260
0.792	0.21861	5.06783
0.795	0.21935	5.09303
0.798	0.22010	5.11817
0.801	0.22087	5.14328
0.804	0.22165	5.16834
0.807	0.22245	5.19337
0.810	0.22326	5.21835
0.813	0.22408	5.24330
0.816	0.22492	5.26820
0.819	0.22576	5.29307
0.822	0.22663	5.31790
0.825	0.22750	5.34270
0.828	0.22839	5.36746
0.831	0.22928	5.39218
0.834	0.23019	5.41687
0.837	0.23112	5.44152
0.840	0.23205	5.46615
0.843	0.23299	5.49074
0.846	0.23395	5.51529
0.849	0.23492	5.53982
0.852	0.23589	5.56431
0.855	0.23688	5.58878
0.858	0.23788	5.61321
0.861	0.23889	5.63762
0.864	0.23991	5.66199
0.867	0.24094	5.68634
0.870	0.24197	5.71066
0.873	0.24302	5.73495
0.876	0.24408	5.75922
0.879	0.24515	5.78345
0.882	0.24623	5.80767
0.885	0.24731	5.83185
0.888	0.24841	5.85601
0.891	0.24951	5.88015
0.894	0.25063	5.90426
0.897	0.25175	5.92834
0.900	0.25288	5.95240
0.903	0.25402	5.97644
0.906	0.25517	6.00046
0.909	0.25633	6.02445
0.912	0.25750	6.04842
0.915	0.25867	6.07237
0.918	0.25985	6.09629
0.921	0.26104	6.12019
0.924	0.26224	6.14408
0.927	0.26345	6.16794
0.930	0.26466	6.19178
0.933	0.26589	6.21560
0.936	0.26712	6.23940
0.939	0.26836	6.26318
0.942	0.26960	6.28694
0.945	0.27086	6.31068
0.948	0.27212	6.33440
0.951	0.27339	6.35810
0.954	0.27466	6.38179
0.957	0.27595	6.40545
0.960	0.27724	6.42910
0.963	0.27854	6.45273
0.966	0.27984	6.47635
0.969	0.28116	6.49994
0.972	0.28248	6.52352
0.975	0.28380	6.54708
0.978	0.28514	6.57063
0.981	0.28648	6.59415
0.984	0.28783	6.61766
0.987	0.28918	6.64116
0.990	0.29055	6.66464
0.993	0.29191	6.68810
0.996	0.29329	6.71155
0.999	0.29467	6.73499
1.002	0.29606	6.75840
1.005	0.29746	6.78181
1.008	0.29886	6.80520
1.011	0.30027	6.82857
1.014	0.30168	6.85193
1.017	0.30311	6.87527
1.020	0.30453	6.89860
1.023	0.30597	6.92192
1.026	0.30741	6.94522
1.029	0.30886	6.96851
1.032	0.31031	6.99179
1.035	0.31177	7.01505
1.038	0.31324	7.03830
1.041	0.31471	7.06154
1.044	0.31619	7.08476
1.047	0.31768	7.10797
1.050	0.31917	7.13117
1.053	0.32067	7.15436
1.056	0.32217	7.17753
1.059	0.32368	7.20069
1.062	0.32519	7.22384
1.065	0.32672	7.24698
1.068	0.32824	7.27010
1.071	0.32978	7.29322
1.074	0.33132	7.31632
1.077	0.33286	7.33941
1.080	0.33442	7.36249
1.083	0.33597	7.38556
1.086	0.33754	7.40862
1.089	0.33911	7.43166
1.092	0.34068	7.45470
1.095	0.34226	7.47772
1.098	0.34385	7.50074
1.101	0.34544	7.52374
1.104	0.34704	7.54673
1.107	0.34865	7.56971
1.110	0.35026	7.59269
1.113	0.35187	7.61565
1.116	0.35349	7.63860
1.119	0.35512	7.66154
1.122	0.35675	7.68448
1.125	0.35839	7.70740
1.128	0.36003	7.73031
1.131	0.36168	7.75321
1.134	0.36334	7.77611
1.137	0.36500	7.79899
1.140	0.36667	7.82187
1.143	0.36834	7.84473
1.146	0.37002	7.86759
1.149	0.37170	7.89044
1.152	0.37339	7.91328
1.155	0.37508	7.93611
1.158	0.37678	7.95893
1.161	0.37848	7.98174
1.164	0.38019	8.00454
1.167	0.38191	8.02734
1.170	0.38363	8.05013
1.173	0.38536	8.07290
1.176	0.38709	8.09567
1.179	0.38883	8.11844
1.182	0.39057	8.14119
1.185	0.39232	8.16393
1.188	0.39407	8.18667
1.191	0.39583	8.20940
1.194	0.39759	8.23212
1.197	0.39936	8.25483
1.200	0.40114	8.27754
