Material: alloys / Au-Ag / Rioux-Au80Ag20
Optical constants. D. Rioux, S. Vallières, S. Besner, P. Muñoz, E. Mazur and M. Meunier. An analytic model for the dielectric function of Au, Ag, and their alloys, Adv. Opt. Mater. 2, 176-182 (2014) (See Supporting information for MATLAB model)
Comments: 80% Au, 20% Ag. Model fitted on ellipsometric measurements on five different AuAg alloy thin film compositions; Thin film compositions: Au, Au:Ag 2:1, Au:Ag 1:1, Au:Ag 1:2, Ag; Film thickness: 80 nm
wavelength (um)	n	k
0.270	1.40930	1.70937
0.273	1.42106	1.71988
0.276	1.43270	1.72976
0.279	1.44419	1.73902
0.282	1.45551	1.74763
0.285	1.46663	1.75560
0.288	1.47752	1.76292
0.291	1.48816	1.76957
0.294	1.49851	1.77556
0.297	1.50853	1.78087
0.300	1.51818	1.78550
0.303	1.52743	1.78945
0.306	1.53624	1.79272
0.309	1.54454	1.79531
0.312	1.55231	1.79724
0.315	1.55948	1.79850
0.318	1.56600	1.79913
0.321	1.57181	1.79913
0.324	1.57687	1.79854
0.327	1.58110	1.79740
0.330	1.58447	1.79574
0.333	1.58690	1.79362
0.336	1.58836	1.79110
0.339	1.58880	1.78825
0.342	1.58818	1.78513
0.345	1.58647	1.78184
0.348	1.58365	1.77847
0.351	1.57972	1.77510
0.354	1.57468	1.77184
0.357	1.56855	1.76877
0.360	1.56138	1.76599
0.363	1.55320	1.76358
0.366	1.54408	1.76163
0.369	1.53409	1.76018
0.372	1.52331	1.75930
0.375	1.51183	1.75902
0.378	1.49973	1.75936
0.381	1.48711	1.76032
0.384	1.47405	1.76190
0.387	1.46063	1.76406
0.390	1.44692	1.76677
0.393	1.43298	1.76997
0.396	1.41886	1.77360
0.399	1.40460	1.77760
0.402	1.39020	1.78188
0.405	1.37568	1.78637
0.408	1.36103	1.79099
0.411	1.34620	1.79566
0.414	1.33116	1.80029
0.417	1.31583	1.80482
0.420	1.30013	1.80919
0.423	1.28394	1.81334
0.426	1.26714	1.81725
0.429	1.24959	1.82091
0.432	1.23112	1.82433
0.435	1.21154	1.82757
0.438	1.19069	1.83074
0.441	1.16839	1.83400
0.444	1.14448	1.83753
0.447	1.11884	1.84162
0.450	1.09141	1.84654
0.453	1.06220	1.85264
0.456	1.03129	1.86025
0.459	0.99885	1.86970
0.462	0.96511	1.88126
0.465	0.93039	1.89518
0.468	0.89501	1.91160
0.471	0.85936	1.93061
0.474	0.82379	1.95220
0.477	0.78865	1.97632
0.480	0.75425	2.00284
0.483	0.72087	2.03158
0.486	0.68875	2.06234
0.489	0.65805	2.09488
0.492	0.62892	2.12897
0.495	0.60143	2.16436
0.498	0.57563	2.20080
0.501	0.55154	2.23808
0.504	0.52912	2.27599
0.507	0.50832	2.31433
0.510	0.48908	2.35295
0.513	0.47132	2.39170
0.516	0.45494	2.43047
0.519	0.43985	2.46915
0.522	0.42596	2.50766
0.525	0.41317	2.54596
0.528	0.40139	2.58397
0.531	0.39054	2.62169
0.534	0.38055	2.65907
0.537	0.37132	2.69610
0.540	0.36281	2.73277
0.543	0.35495	2.76909
0.546	0.34768	2.80504
0.549	0.34095	2.84063
0.552	0.33472	2.87586
0.555	0.32895	2.91075
0.558	0.32360	2.94530
0.561	0.31863	2.97951
0.564	0.31402	3.01341
0.567	0.30973	3.04699
0.570	0.30576	3.08028
0.573	0.30206	3.11327
0.576	0.29862	3.14598
0.579	0.29543	3.17842
0.582	0.29246	3.21060
0.585	0.28971	3.24252
0.588	0.28715	3.27421
0.591	0.28477	3.30565
0.594	0.28257	3.33687
0.597	0.28053	3.36787
0.600	0.27864	3.39867
0.603	0.27689	3.42925
0.606	0.27528	3.45965
0.609	0.27379	3.48985
0.612	0.27243	3.51987
0.615	0.27118	3.54971
0.618	0.27003	3.57939
0.621	0.26899	3.60890
0.624	0.26804	3.63824
0.627	0.26719	3.66744
0.630	0.26642	3.69649
0.633	0.26574	3.72539
0.636	0.26513	3.75415
0.639	0.26460	3.78278
0.642	0.26415	3.81127
0.645	0.26376	3.83964
0.648	0.26343	3.86789
0.651	0.26317	3.89601
0.654	0.26297	3.92402
0.657	0.26283	3.95192
0.660	0.26275	3.97971
0.663	0.26271	4.00739
0.666	0.26273	4.03497
0.669	0.26280	4.06244
0.672	0.26291	4.08982
0.675	0.26308	4.11711
0.678	0.26328	4.14430
0.681	0.26353	4.17141
0.684	0.26382	4.19842
0.687	0.26415	4.22535
0.690	0.26451	4.25220
0.693	0.26492	4.27897
0.696	0.26536	4.30566
0.699	0.26583	4.33227
0.702	0.26634	4.35881
0.705	0.26689	4.38527
0.708	0.26746	4.41166
0.711	0.26806	4.43799
0.714	0.26870	4.46424
0.717	0.26936	4.49043
0.720	0.27006	4.51655
0.723	0.27078	4.54262
0.726	0.27152	4.56861
0.729	0.27230	4.59455
0.732	0.27309	4.62043
0.735	0.27392	4.64625
0.738	0.27477	4.67202
0.741	0.27564	4.69773
0.744	0.27653	4.72338
0.747	0.27745	4.74899
0.750	0.27839	4.77454
0.753	0.27935	4.80004
0.756	0.28033	4.82549
0.759	0.28133	4.85089
0.762	0.28236	4.87624
0.765	0.28340	4.90155
0.768	0.28446	4.92681
0.771	0.28554	4.95203
0.774	0.28664	4.97720
0.777	0.28776	5.00233
0.780	0.28890	5.02742
0.783	0.29005	5.05246
0.786	0.29122	5.07747
0.789	0.29241	5.10243
0.792	0.29362	5.12736
0.795	0.29484	5.15224
0.798	0.29608	5.17709
0.801	0.29733	5.20190
0.804	0.29860	5.22668
0.807	0.29988	5.25142
0.810	0.30118	5.27612
0.813	0.30250	5.30079
0.816	0.30383	5.32543
0.819	0.30517	5.35003
0.822	0.30653	5.37460
0.825	0.30790	5.39914
0.828	0.30929	5.42364
0.831	0.31069	5.44812
0.834	0.31210	5.47256
0.837	0.31353	5.49697
0.840	0.31497	5.52136
0.843	0.31642	5.54571
0.846	0.31789	5.57004
0.849	0.31937	5.59433
0.852	0.32086	5.61860
0.855	0.32236	5.64284
0.858	0.32388	5.66706
0.861	0.32540	5.69125
0.864	0.32694	5.71541
0.867	0.32849	5.73954
0.870	0.33006	5.76366
0.873	0.33163	5.78774
0.876	0.33322	5.81180
0.879	0.33482	5.83584
0.882	0.33643	5.85985
0.885	0.33805	5.88384
0.888	0.33968	5.90781
0.891	0.34132	5.93175
0.894	0.34297	5.95567
0.897	0.34464	5.97957
0.900	0.34631	6.00344
0.903	0.34800	6.02730
0.906	0.34969	6.05113
0.909	0.35140	6.07494
0.912	0.35311	6.09873
0.915	0.35484	6.12250
0.918	0.35658	6.14625
0.921	0.35832	6.16998
0.924	0.36008	6.19369
0.927	0.36185	6.21738
0.930	0.36362	6.24106
0.933	0.36541	6.26471
0.936	0.36720	6.28834
0.939	0.36901	6.31196
0.942	0.37083	6.33555
0.945	0.37265	6.35913
0.948	0.37448	6.38269
0.951	0.37633	6.40624
0.954	0.37818	6.42976
0.957	0.38004	6.45327
0.960	0.38191	6.47676
0.963	0.38379	6.50024
0.966	0.38568	6.52370
0.969	0.38758	6.54714
0.972	0.38949	6.57057
0.975	0.39141	6.59398
0.978	0.39333	6.61737
0.981	0.39527	6.64075
0.984	0.39721	6.66411
0.987	0.39916	6.68746
0.990	0.40112	6.71079
0.993	0.40309	6.73411
0.996	0.40507	6.75741
0.999	0.40705	6.78070
1.002	0.40905	6.80397
1.005	0.41105	6.82723
1.008	0.41306	6.85048
1.011	0.41509	6.87371
1.014	0.41711	6.89693
1.017	0.41915	6.92013
1.020	0.42120	6.94332
1.023	0.42325	6.96650
1.026	0.42531	6.98966
1.029	0.42738	7.01281
1.032	0.42946	7.03595
1.035	0.43155	7.05907
1.038	0.43364	7.08218
1.041	0.43575	7.10528
1.044	0.43786	7.12837
1.047	0.43998	7.15144
1.050	0.44210	7.17451
1.053	0.44424	7.19756
1.056	0.44638	7.22059
1.059	0.44853	7.24362
1.062	0.45069	7.26663
1.065	0.45286	7.28963
1.068	0.45503	7.31262
1.071	0.45721	7.33560
1.074	0.45940	7.35857
1.077	0.46160	7.38153
1.080	0.46381	7.40447
1.083	0.46602	7.42741
1.086	0.46824	7.45033
1.089	0.47047	7.47324
1.092	0.47270	7.49614
1.095	0.47495	7.51904
1.098	0.47720	7.54192
1.101	0.47946	7.56479
1.104	0.48173	7.58765
1.107	0.48400	7.61049
1.110	0.48628	7.63333
1.113	0.48857	7.65616
1.116	0.49087	7.67898
1.119	0.49317	7.70179
1.122	0.49548	7.72459
1.125	0.49780	7.74738
1.128	0.50013	7.77016
1.131	0.50246	7.79293
1.134	0.50480	7.81569
1.137	0.50715	7.83844
1.140	0.50951	7.86118
1.143	0.51187	7.88391
1.146	0.51424	7.90663
1.149	0.51662	7.92935
1.152	0.51900	7.95205
1.155	0.52140	7.97475
1.158	0.52380	7.99743
1.161	0.52620	8.02011
1.164	0.52862	8.04278
1.167	0.53104	8.06544
1.170	0.53347	8.08809
1.173	0.53590	8.11073
1.176	0.53835	8.13337
1.179	0.54080	8.15599
1.182	0.54325	8.17861
1.185	0.54572	8.20122
1.188	0.54819	8.22382
1.191	0.55067	8.24641
1.194	0.55315	8.26899
1.197	0.55564	8.29157
1.200	0.55814	8.31413
