Material: alloys / Au-Ag / Rioux-Au10Ag90
Optical constants. D. Rioux, S. Vallières, S. Besner, P. Muñoz, E. Mazur and M. Meunier. An analytic model for the dielectric function of Au, Ag, and their alloys, Adv. Opt. Mater. 2, 176-182 (2014) (See Supporting information for MATLAB model)
Comments: 10% Au, 90% Ag. Model fitted on ellipsometric measurements on five different AuAg alloy thin film compositions; Thin film compositions: Au, Au:Ag 2:1, Au:Ag 1:1, Au:Ag 1:2, Ag; Film thickness: 80 nm
wavelength (um)	n	k
0.270	1.27084	1.36113
0.273	1.28426	1.35937
0.276	1.29751	1.35589
0.279	1.31046	1.35055
0.282	1.32301	1.34323
0.285	1.33498	1.33377
0.288	1.34618	1.32203
0.291	1.35637	1.30789
0.294	1.36528	1.29124
0.297	1.37259	1.27200
0.300	1.37798	1.25016
0.303	1.38112	1.22576
0.306	1.38177	1.19887
0.309	1.37977	1.16957
0.312	1.37515	1.13776
0.315	1.36808	1.10299
0.318	1.35864	1.06403
0.321	1.34610	1.01833
0.324	1.32671	0.96204
0.327	1.29050	0.89434
0.330	1.22813	0.82589
0.333	1.14263	0.76976
0.336	1.04070	0.73162
0.339	0.92774	0.71541
0.342	0.81152	0.72445
0.345	0.70156	0.75717
0.348	0.60410	0.80771
0.351	0.52160	0.86959
0.354	0.45386	0.93719
0.357	0.39907	1.00636
0.360	0.35482	1.07461
0.363	0.31887	1.14067
0.366	0.28934	1.20403
0.369	0.26483	1.26459
0.372	0.24424	1.32246
0.375	0.22676	1.37782
0.378	0.21179	1.43087
0.381	0.19887	1.48182
0.384	0.18761	1.53088
0.387	0.17775	1.57822
0.390	0.16907	1.62400
0.393	0.16137	1.66837
0.396	0.15452	1.71145
0.399	0.14839	1.75336
0.402	0.14290	1.79420
0.405	0.13796	1.83406
0.408	0.13349	1.87301
0.411	0.12945	1.91113
0.414	0.12579	1.94848
0.417	0.12246	1.98512
0.420	0.11942	2.02110
0.423	0.11666	2.05647
0.426	0.11413	2.09126
0.429	0.11182	2.12552
0.432	0.10970	2.15927
0.435	0.10777	2.19256
0.438	0.10599	2.22541
0.441	0.10437	2.25785
0.444	0.10288	2.28989
0.447	0.10151	2.32157
0.450	0.10026	2.35290
0.453	0.09911	2.38391
0.456	0.09807	2.41460
0.459	0.09711	2.44500
0.462	0.09624	2.47512
0.465	0.09544	2.50497
0.468	0.09472	2.53457
0.471	0.09407	2.56393
0.474	0.09348	2.59306
0.477	0.09295	2.62197
0.480	0.09247	2.65068
0.483	0.09205	2.67918
0.486	0.09168	2.70749
0.489	0.09135	2.73562
0.492	0.09107	2.76357
0.495	0.09083	2.79136
0.498	0.09063	2.81898
0.501	0.09047	2.84645
0.504	0.09034	2.87377
0.507	0.09024	2.90095
0.510	0.09018	2.92799
0.513	0.09015	2.95490
0.516	0.09014	2.98167
0.519	0.09017	3.00833
0.522	0.09022	3.03487
0.525	0.09029	3.06129
0.528	0.09039	3.08760
0.531	0.09051	3.11380
0.534	0.09066	3.13990
0.537	0.09082	3.16590
0.540	0.09101	3.19181
0.543	0.09122	3.21762
0.546	0.09144	3.24334
0.549	0.09168	3.26897
0.552	0.09194	3.29451
0.555	0.09222	3.31998
0.558	0.09252	3.34536
0.561	0.09283	3.37067
0.564	0.09315	3.39590
0.567	0.09349	3.42105
0.570	0.09384	3.44614
0.573	0.09421	3.47115
0.576	0.09459	3.49610
0.579	0.09499	3.52098
0.582	0.09539	3.54580
0.585	0.09581	3.57056
0.588	0.09625	3.59526
0.591	0.09669	3.61989
0.594	0.09714	3.64447
0.597	0.09761	3.66900
0.600	0.09808	3.69347
0.603	0.09857	3.71789
0.606	0.09907	3.74225
0.609	0.09958	3.76657
0.612	0.10009	3.79083
0.615	0.10062	3.81505
0.618	0.10116	3.83922
0.621	0.10170	3.86334
0.624	0.10226	3.88742
0.627	0.10282	3.91146
0.630	0.10339	3.93545
0.633	0.10397	3.95941
0.636	0.10456	3.98332
0.639	0.10516	4.00719
0.642	0.10576	4.03102
0.645	0.10638	4.05481
0.648	0.10700	4.07857
0.651	0.10763	4.10229
0.654	0.10826	4.12597
0.657	0.10891	4.14962
0.660	0.10956	4.17324
0.663	0.11021	4.19682
0.666	0.11088	4.22037
0.669	0.11155	4.24388
0.672	0.11223	4.26737
0.675	0.11292	4.29082
0.678	0.11361	4.31424
0.681	0.11431	4.33763
0.684	0.11501	4.36100
0.687	0.11572	4.38433
0.690	0.11644	4.40764
0.693	0.11717	4.43092
0.696	0.11790	4.45417
0.699	0.11863	4.47740
0.702	0.11938	4.50060
0.705	0.12013	4.52377
0.708	0.12088	4.54692
0.711	0.12164	4.57004
0.714	0.12241	4.59314
0.717	0.12318	4.61622
0.720	0.12396	4.63927
0.723	0.12474	4.66230
0.726	0.12553	4.68531
0.729	0.12633	4.70829
0.732	0.12713	4.73125
0.735	0.12794	4.75420
0.738	0.12875	4.77712
0.741	0.12956	4.80002
0.744	0.13039	4.82290
0.747	0.13121	4.84575
0.750	0.13205	4.86859
0.753	0.13289	4.89141
0.756	0.13373	4.91421
0.759	0.13458	4.93700
0.762	0.13543	4.95976
0.765	0.13629	4.98251
0.768	0.13715	5.00523
0.771	0.13802	5.02794
0.774	0.13890	5.05064
0.777	0.13978	5.07331
0.780	0.14066	5.09597
0.783	0.14155	5.11861
0.786	0.14244	5.14124
0.789	0.14334	5.16384
0.792	0.14424	5.18644
0.795	0.14515	5.20902
0.798	0.14607	5.23158
0.801	0.14698	5.25413
0.804	0.14791	5.27666
0.807	0.14883	5.29917
0.810	0.14976	5.32168
0.813	0.15070	5.34417
0.816	0.15164	5.36664
0.819	0.15259	5.38910
0.822	0.15354	5.41155
0.825	0.15449	5.43398
0.828	0.15545	5.45640
0.831	0.15642	5.47881
0.834	0.15738	5.50120
0.837	0.15836	5.52358
0.840	0.15934	5.54595
0.843	0.16032	5.56830
0.846	0.16130	5.59065
0.849	0.16229	5.61298
0.852	0.16329	5.63530
0.855	0.16429	5.65760
0.858	0.16529	5.67990
0.861	0.16630	5.70218
0.864	0.16732	5.72446
0.867	0.16833	5.74672
0.870	0.16935	5.76897
0.873	0.17038	5.79120
0.876	0.17141	5.81343
0.879	0.17245	5.83565
0.882	0.17348	5.85786
0.885	0.17453	5.88005
0.888	0.17558	5.90224
0.891	0.17663	5.92441
0.894	0.17768	5.94658
0.897	0.17874	5.96874
0.900	0.17981	5.99088
0.903	0.18088	6.01302
0.906	0.18195	6.03514
0.909	0.18303	6.05726
0.912	0.18411	6.07937
0.915	0.18519	6.10147
0.918	0.18628	6.12356
0.921	0.18738	6.14564
0.924	0.18848	6.16771
0.927	0.18958	6.18977
0.930	0.19069	6.21182
0.933	0.19180	6.23387
0.936	0.19291	6.25590
0.939	0.19403	6.27793
0.942	0.19515	6.29995
0.945	0.19628	6.32196
0.948	0.19741	6.34396
0.951	0.19855	6.36596
0.954	0.19968	6.38794
0.957	0.20083	6.40992
0.960	0.20198	6.43189
0.963	0.20313	6.45386
0.966	0.20428	6.47581
0.969	0.20544	6.49776
0.972	0.20661	6.51970
0.975	0.20777	6.54163
0.978	0.20894	6.56356
0.981	0.21012	6.58547
0.984	0.21130	6.60738
0.987	0.21248	6.62929
0.990	0.21367	6.65118
0.993	0.21486	6.67307
0.996	0.21606	6.69496
0.999	0.21726	6.71683
1.002	0.21846	6.73870
1.005	0.21967	6.76056
1.008	0.22088	6.78242
1.011	0.22210	6.80426
1.014	0.22332	6.82611
1.017	0.22454	6.84794
1.020	0.22577	6.86977
1.023	0.22700	6.89159
1.026	0.22823	6.91341
1.029	0.22947	6.93522
1.032	0.23072	6.95702
1.035	0.23196	6.97882
1.038	0.23322	7.00061
1.041	0.23447	7.02240
1.044	0.23573	7.04418
1.047	0.23699	7.06595
1.050	0.23826	7.08772
1.053	0.23953	7.10948
1.056	0.24080	7.13124
1.059	0.24208	7.15299
1.062	0.24336	7.17473
1.065	0.24465	7.19647
1.068	0.24594	7.21820
1.071	0.24724	7.23993
1.074	0.24853	7.26165
1.077	0.24984	7.28337
1.080	0.25114	7.30508
1.083	0.25245	7.32679
1.086	0.25376	7.34849
1.089	0.25508	7.37019
1.092	0.25640	7.39188
1.095	0.25773	7.41356
1.098	0.25906	7.43524
1.101	0.26039	7.45692
1.104	0.26173	7.47859
1.107	0.26307	7.50025
1.110	0.26441	7.52191
1.113	0.26576	7.54357
1.116	0.26711	7.56522
1.119	0.26847	7.58686
1.122	0.26983	7.60851
1.125	0.27119	7.63014
1.128	0.27256	7.65177
1.131	0.27393	7.67340
1.134	0.27530	7.69502
1.137	0.27668	7.71664
1.140	0.27806	7.73825
1.143	0.27945	7.75986
1.146	0.28084	7.78146
1.149	0.28223	7.80306
1.152	0.28363	7.82466
1.155	0.28503	7.84625
1.158	0.28644	7.86784
1.161	0.28785	7.88942
1.164	0.28926	7.91099
1.167	0.29068	7.93257
1.170	0.29210	7.95414
1.173	0.29352	7.97570
1.176	0.29495	7.99726
1.179	0.29638	8.01882
1.182	0.29782	8.04037
1.185	0.29926	8.06192
1.188	0.30070	8.08346
1.191	0.30215	8.10500
1.194	0.30360	8.12654
1.197	0.30506	8.14807
1.200	0.30651	8.16960
