Material: alloys / Au-Ag / Rioux-Au70Ag30
Optical constants. D. Rioux, S. Vallières, S. Besner, P. Muñoz, E. Mazur and M. Meunier. An analytic model for the dielectric function of Au, Ag, and their alloys, Adv. Opt. Mater. 2, 176-182 (2014) (See Supporting information for MATLAB model)
Comments: 70% Au, 30% Ag. Model fitted on ellipsometric measurements on five different AuAg alloy thin film compositions; Thin film compositions: Au, Au:Ag 2:1, Au:Ag 1:1, Au:Ag 1:2, Ag; Film thickness: 80 nm
wavelength (um)	n	k
0.270	1.38762	1.65362
0.273	1.39803	1.66350
0.276	1.40827	1.67278
0.279	1.41831	1.68146
0.282	1.42813	1.68953
0.285	1.43771	1.69699
0.288	1.44700	1.70383
0.291	1.45599	1.71006
0.294	1.46465	1.71566
0.297	1.47292	1.72065
0.300	1.48079	1.72501
0.303	1.48821	1.72876
0.306	1.49515	1.73189
0.309	1.50156	1.73442
0.312	1.50739	1.73636
0.315	1.51261	1.73773
0.318	1.51717	1.73853
0.321	1.52101	1.73881
0.324	1.52411	1.73858
0.327	1.52640	1.73788
0.330	1.52784	1.73675
0.333	1.52839	1.73524
0.336	1.52802	1.73339
0.339	1.52667	1.73127
0.342	1.52434	1.72895
0.345	1.52098	1.72648
0.348	1.51659	1.72394
0.351	1.51116	1.72140
0.354	1.50468	1.71894
0.357	1.49717	1.71664
0.360	1.48865	1.71457
0.363	1.47916	1.71280
0.366	1.46872	1.71140
0.369	1.45738	1.71041
0.372	1.44521	1.70990
0.375	1.43226	1.70990
0.378	1.41859	1.71044
0.381	1.40426	1.71153
0.384	1.38933	1.71317
0.387	1.37387	1.71536
0.390	1.35792	1.71809
0.393	1.34153	1.72131
0.396	1.32472	1.72500
0.399	1.30752	1.72911
0.402	1.28994	1.73360
0.405	1.27195	1.73840
0.408	1.25354	1.74349
0.411	1.23465	1.74880
0.414	1.21521	1.75431
0.417	1.19515	1.76001
0.420	1.17434	1.76589
0.423	1.15269	1.77200
0.426	1.13005	1.77840
0.429	1.10632	1.78521
0.432	1.08137	1.79258
0.435	1.05513	1.80072
0.438	1.02756	1.80986
0.441	0.99871	1.82029
0.444	0.96866	1.83225
0.447	0.93759	1.84602
0.450	0.90573	1.86179
0.453	0.87336	1.87972
0.456	0.84080	1.89990
0.459	0.80837	1.92234
0.462	0.77635	1.94699
0.465	0.74505	1.97374
0.468	0.71470	2.00245
0.471	0.68549	2.03293
0.474	0.65760	2.06497
0.477	0.63114	2.09835
0.480	0.60617	2.13287
0.483	0.58273	2.16831
0.486	0.56083	2.20446
0.489	0.54044	2.24114
0.492	0.52151	2.27820
0.495	0.50398	2.31548
0.498	0.48777	2.35286
0.501	0.47280	2.39023
0.504	0.45899	2.42752
0.507	0.44625	2.46466
0.510	0.43450	2.50159
0.513	0.42365	2.53828
0.516	0.41364	2.57469
0.519	0.40439	2.61081
0.522	0.39584	2.64661
0.525	0.38793	2.68210
0.528	0.38061	2.71728
0.531	0.37383	2.75213
0.534	0.36754	2.78666
0.537	0.36171	2.82089
0.540	0.35630	2.85480
0.543	0.35128	2.88842
0.546	0.34661	2.92174
0.549	0.34228	2.95478
0.552	0.33825	2.98754
0.555	0.33451	3.02004
0.558	0.33103	3.05228
0.561	0.32780	3.08427
0.564	0.32480	3.11601
0.567	0.32202	3.14752
0.570	0.31944	3.17881
0.573	0.31705	3.20988
0.576	0.31483	3.24074
0.579	0.31279	3.27139
0.582	0.31090	3.30185
0.585	0.30916	3.33212
0.588	0.30756	3.36220
0.591	0.30609	3.39211
0.594	0.30475	3.42184
0.597	0.30352	3.45141
0.600	0.30241	3.48082
0.603	0.30141	3.51007
0.606	0.30051	3.53917
0.609	0.29970	3.56813
0.612	0.29899	3.59695
0.615	0.29837	3.62563
0.618	0.29783	3.65417
0.621	0.29737	3.68259
0.624	0.29699	3.71088
0.627	0.29668	3.73906
0.630	0.29644	3.76711
0.633	0.29627	3.79505
0.636	0.29616	3.82288
0.639	0.29612	3.85060
0.642	0.29614	3.87822
0.645	0.29621	3.90574
0.648	0.29635	3.93315
0.651	0.29653	3.96048
0.654	0.29677	3.98770
0.657	0.29705	4.01484
0.660	0.29739	4.04189
0.663	0.29777	4.06885
0.666	0.29819	4.09572
0.669	0.29866	4.12252
0.672	0.29918	4.14923
0.675	0.29973	4.17587
0.678	0.30032	4.20243
0.681	0.30095	4.22892
0.684	0.30162	4.25533
0.687	0.30232	4.28167
0.690	0.30306	4.30795
0.693	0.30384	4.33416
0.696	0.30464	4.36030
0.699	0.30548	4.38637
0.702	0.30635	4.41239
0.705	0.30725	4.43834
0.708	0.30818	4.46423
0.711	0.30915	4.49006
0.714	0.31013	4.51584
0.717	0.31115	4.54156
0.720	0.31219	4.56722
0.723	0.31327	4.59283
0.726	0.31436	4.61839
0.729	0.31548	4.64389
0.732	0.31663	4.66935
0.735	0.31780	4.69475
0.738	0.31900	4.72011
0.741	0.32021	4.74542
0.744	0.32145	4.77068
0.747	0.32272	4.79589
0.750	0.32400	4.82107
0.753	0.32531	4.84619
0.756	0.32664	4.87128
0.759	0.32798	4.89632
0.762	0.32935	4.92132
0.765	0.33074	4.94628
0.768	0.33215	4.97119
0.771	0.33358	4.99607
0.774	0.33502	5.02091
0.777	0.33649	5.04572
0.780	0.33797	5.07048
0.783	0.33947	5.09521
0.786	0.34099	5.11990
0.789	0.34253	5.14456
0.792	0.34408	5.16918
0.795	0.34565	5.19377
0.798	0.34724	5.21833
0.801	0.34885	5.24285
0.804	0.35047	5.26734
0.807	0.35211	5.29180
0.810	0.35376	5.31622
0.813	0.35543	5.34062
0.816	0.35711	5.36498
0.819	0.35881	5.38932
0.822	0.36052	5.41362
0.825	0.36225	5.43790
0.828	0.36400	5.46214
0.831	0.36576	5.48636
0.834	0.36753	5.51055
0.837	0.36932	5.53472
0.840	0.37112	5.55885
0.843	0.37293	5.58296
0.846	0.37476	5.60705
0.849	0.37660	5.63111
0.852	0.37846	5.65514
0.855	0.38033	5.67915
0.858	0.38221	5.70313
0.861	0.38411	5.72709
0.864	0.38602	5.75103
0.867	0.38794	5.77494
0.870	0.38987	5.79883
0.873	0.39182	5.82269
0.876	0.39378	5.84654
0.879	0.39575	5.87036
0.882	0.39774	5.89415
0.885	0.39973	5.91793
0.888	0.40174	5.94169
0.891	0.40376	5.96542
0.894	0.40580	5.98913
0.897	0.40784	6.01283
0.900	0.40990	6.03650
0.903	0.41197	6.06015
0.906	0.41405	6.08378
0.909	0.41614	6.10739
0.912	0.41824	6.13099
0.915	0.42035	6.15456
0.918	0.42248	6.17811
0.921	0.42461	6.20165
0.924	0.42676	6.22517
0.927	0.42892	6.24867
0.930	0.43109	6.27215
0.933	0.43327	6.29561
0.936	0.43546	6.31906
0.939	0.43766	6.34249
0.942	0.43988	6.36590
0.945	0.44210	6.38929
0.948	0.44433	6.41267
0.951	0.44658	6.43603
0.954	0.44883	6.45937
0.957	0.45110	6.48270
0.960	0.45337	6.50601
0.963	0.45566	6.52931
0.966	0.45796	6.55259
0.969	0.46026	6.57585
0.972	0.46258	6.59910
0.975	0.46491	6.62234
0.978	0.46724	6.64556
0.981	0.46959	6.66876
0.984	0.47195	6.69195
0.987	0.47431	6.71512
0.990	0.47669	6.73828
0.993	0.47908	6.76143
0.996	0.48147	6.78456
0.999	0.48388	6.80768
1.002	0.48629	6.83078
1.005	0.48872	6.85387
1.008	0.49115	6.87695
1.011	0.49360	6.90001
1.014	0.49605	6.92306
1.017	0.49852	6.94609
1.020	0.50099	6.96912
1.023	0.50347	6.99212
1.026	0.50596	7.01512
1.029	0.50846	7.03811
1.032	0.51098	7.06108
1.035	0.51350	7.08404
1.038	0.51602	7.10698
1.041	0.51856	7.12992
1.044	0.52111	7.15284
1.047	0.52367	7.17575
1.050	0.52623	7.19864
1.053	0.52881	7.22153
1.056	0.53139	7.24440
1.059	0.53399	7.26727
1.062	0.53659	7.29012
1.065	0.53920	7.31296
1.068	0.54182	7.33578
1.071	0.54445	7.35860
1.074	0.54709	7.38140
1.077	0.54974	7.40420
1.080	0.55239	7.42698
1.083	0.55506	7.44975
1.086	0.55773	7.47251
1.089	0.56042	7.49526
1.092	0.56311	7.51800
1.095	0.56581	7.54073
1.098	0.56852	7.56345
1.101	0.57124	7.58616
1.104	0.57396	7.60886
1.107	0.57670	7.63154
1.110	0.57944	7.65422
1.113	0.58219	7.67689
1.116	0.58495	7.69955
1.119	0.58772	7.72219
1.122	0.59050	7.74483
1.125	0.59329	7.76746
1.128	0.59609	7.79007
1.131	0.59889	7.81268
1.134	0.60170	7.83528
1.137	0.60452	7.85787
1.140	0.60735	7.88045
1.143	0.61019	7.90302
1.146	0.61304	7.92558
1.149	0.61589	7.94813
1.152	0.61876	7.97067
1.155	0.62163	7.99320
1.158	0.62451	8.01572
1.161	0.62740	8.03824
1.164	0.63029	8.06074
1.167	0.63320	8.08324
1.170	0.63611	8.10573
1.173	0.63903	8.12820
1.176	0.64196	8.15067
1.179	0.64490	8.17313
1.182	0.64785	8.19559
1.185	0.65080	8.21803
1.188	0.65376	8.24046
1.191	0.65674	8.26289
1.194	0.65972	8.28531
1.197	0.66270	8.30772
1.200	0.66570	8.33012
