Material: alloys / Au-Ag / Rioux-Au40Ag60
Optical constants. D. Rioux, S. Vallières, S. Besner, P. Muñoz, E. Mazur and M. Meunier. An analytic model for the dielectric function of Au, Ag, and their alloys, Adv. Opt. Mater. 2, 176-182 (2014) (See Supporting information for MATLAB model)
Comments: 40% Au, 60% Ag. Model fitted on ellipsometric measurements on five different AuAg alloy thin film compositions; Thin film compositions: Au, Au:Ag 2:1, Au:Ag 1:1, Au:Ag 1:2, Ag; Film thickness: 80 nm
wavelength (um)	n	k
0.270	1.32041	1.51762
0.273	1.32904	1.52475
0.276	1.33740	1.53121
0.279	1.34545	1.53698
0.282	1.35316	1.54205
0.285	1.36049	1.54642
0.288	1.36740	1.55008
0.291	1.37384	1.55304
0.294	1.37977	1.55528
0.297	1.38514	1.55682
0.300	1.38988	1.55767
0.303	1.39396	1.55782
0.306	1.39730	1.55729
0.309	1.39986	1.55611
0.312	1.40156	1.55430
0.315	1.40234	1.55190
0.318	1.40215	1.54893
0.321	1.40092	1.54545
0.324	1.39860	1.54152
0.327	1.39512	1.53718
0.330	1.39044	1.53252
0.333	1.38451	1.52761
0.336	1.37731	1.52252
0.339	1.36880	1.51734
0.342	1.35898	1.51215
0.345	1.34783	1.50704
0.348	1.33535	1.50209
0.351	1.32157	1.49736
0.354	1.30650	1.49291
0.357	1.29015	1.48880
0.360	1.27254	1.48506
0.363	1.25368	1.48170
0.366	1.23356	1.47874
0.369	1.21211	1.47618
0.372	1.18927	1.47401
0.375	1.16490	1.47226
0.378	1.13882	1.47101
0.381	1.11081	1.47042
0.384	1.08063	1.47076
0.387	1.04812	1.47244
0.390	1.01321	1.47602
0.393	0.97608	1.48210
0.396	0.93707	1.49125
0.399	0.89676	1.50392
0.402	0.85582	1.52038
0.405	0.81495	1.54067
0.408	0.77484	1.56467
0.411	0.73607	1.59208
0.414	0.69913	1.62251
0.417	0.66435	1.65547
0.420	0.63194	1.69048
0.423	0.60199	1.72705
0.426	0.57446	1.76474
0.429	0.54927	1.80316
0.432	0.52626	1.84202
0.435	0.50525	1.88107
0.438	0.48608	1.92013
0.441	0.46857	1.95906
0.444	0.45254	1.99777
0.447	0.43787	2.03618
0.450	0.42440	2.07427
0.453	0.41202	2.11198
0.456	0.40063	2.14932
0.459	0.39013	2.18626
0.462	0.38044	2.22280
0.465	0.37148	2.25896
0.468	0.36319	2.29473
0.471	0.35551	2.33012
0.474	0.34839	2.36513
0.477	0.34178	2.39979
0.480	0.33564	2.43410
0.483	0.32994	2.46806
0.486	0.32464	2.50170
0.489	0.31971	2.53503
0.492	0.31512	2.56804
0.495	0.31085	2.60077
0.498	0.30688	2.63321
0.501	0.30318	2.66537
0.504	0.29975	2.69727
0.507	0.29655	2.72892
0.510	0.29358	2.76032
0.513	0.29082	2.79148
0.516	0.28826	2.82242
0.519	0.28588	2.85313
0.522	0.28368	2.88364
0.525	0.28165	2.91394
0.528	0.27977	2.94404
0.531	0.27804	2.97395
0.534	0.27645	3.00367
0.537	0.27499	3.03322
0.540	0.27366	3.06260
0.543	0.27244	3.09181
0.546	0.27134	3.12086
0.549	0.27034	3.14975
0.552	0.26945	3.17849
0.555	0.26865	3.20709
0.558	0.26795	3.23554
0.561	0.26734	3.26386
0.564	0.26681	3.29205
0.567	0.26636	3.32011
0.570	0.26599	3.34804
0.573	0.26569	3.37585
0.576	0.26546	3.40355
0.579	0.26530	3.43113
0.582	0.26521	3.45860
0.585	0.26518	3.48596
0.588	0.26521	3.51322
0.591	0.26530	3.54037
0.594	0.26544	3.56743
0.597	0.26564	3.59439
0.600	0.26589	3.62126
0.603	0.26619	3.64804
0.606	0.26653	3.67473
0.609	0.26693	3.70133
0.612	0.26737	3.72785
0.615	0.26785	3.75429
0.618	0.26838	3.78065
0.621	0.26895	3.80693
0.624	0.26955	3.83313
0.627	0.27020	3.85926
0.630	0.27088	3.88532
0.633	0.27160	3.91131
0.636	0.27236	3.93723
0.639	0.27314	3.96308
0.642	0.27397	3.98887
0.645	0.27482	4.01459
0.648	0.27571	4.04025
0.651	0.27662	4.06585
0.654	0.27757	4.09139
0.657	0.27855	4.11687
0.660	0.27955	4.14230
0.663	0.28058	4.16767
0.666	0.28164	4.19298
0.669	0.28273	4.21824
0.672	0.28384	4.24345
0.675	0.28498	4.26861
0.678	0.28614	4.29372
0.681	0.28733	4.31877
0.684	0.28854	4.34378
0.687	0.28977	4.36875
0.690	0.29103	4.39366
0.693	0.29231	4.41853
0.696	0.29361	4.44336
0.699	0.29493	4.46815
0.702	0.29627	4.49289
0.705	0.29764	4.51759
0.708	0.29902	4.54224
0.711	0.30043	4.56686
0.714	0.30185	4.59144
0.717	0.30329	4.61598
0.720	0.30476	4.64048
0.723	0.30624	4.66495
0.726	0.30774	4.68937
0.729	0.30925	4.71376
0.732	0.31079	4.73812
0.735	0.31234	4.76244
0.738	0.31391	4.78673
0.741	0.31550	4.81098
0.744	0.31710	4.83520
0.747	0.31872	4.85939
0.750	0.32036	4.88355
0.753	0.32201	4.90767
0.756	0.32368	4.93176
0.759	0.32537	4.95583
0.762	0.32707	4.97986
0.765	0.32878	5.00387
0.768	0.33052	5.02784
0.771	0.33226	5.05179
0.774	0.33402	5.07571
0.777	0.33580	5.09960
0.780	0.33759	5.12346
0.783	0.33939	5.14730
0.786	0.34121	5.17111
0.789	0.34304	5.19489
0.792	0.34489	5.21865
0.795	0.34675	5.24239
0.798	0.34862	5.26610
0.801	0.35051	5.28978
0.804	0.35241	5.31344
0.807	0.35432	5.33708
0.810	0.35625	5.36069
0.813	0.35819	5.38429
0.816	0.36014	5.40785
0.819	0.36211	5.43140
0.822	0.36408	5.45492
0.825	0.36608	5.47842
0.828	0.36808	5.50190
0.831	0.37009	5.52536
0.834	0.37212	5.54880
0.837	0.37416	5.57222
0.840	0.37621	5.59561
0.843	0.37828	5.61899
0.846	0.38035	5.64235
0.849	0.38244	5.66568
0.852	0.38454	5.68900
0.855	0.38665	5.71230
0.858	0.38877	5.73558
0.861	0.39091	5.75884
0.864	0.39305	5.78208
0.867	0.39521	5.80531
0.870	0.39738	5.82851
0.873	0.39956	5.85170
0.876	0.40175	5.87487
0.879	0.40395	5.89803
0.882	0.40616	5.92116
0.885	0.40838	5.94428
0.888	0.41062	5.96738
0.891	0.41286	5.99047
0.894	0.41512	6.01354
0.897	0.41739	6.03659
0.900	0.41966	6.05963
0.903	0.42195	6.08265
0.906	0.42425	6.10566
0.909	0.42656	6.12865
0.912	0.42888	6.15162
0.915	0.43121	6.17458
0.918	0.43355	6.19753
0.921	0.43590	6.22046
0.924	0.43826	6.24337
0.927	0.44063	6.26627
0.930	0.44301	6.28916
0.933	0.44540	6.31203
0.936	0.44781	6.33489
0.939	0.45022	6.35773
0.942	0.45264	6.38056
0.945	0.45507	6.40338
0.948	0.45751	6.42618
0.951	0.45996	6.44897
0.954	0.46243	6.47175
0.957	0.46490	6.49451
0.960	0.46738	6.51726
0.963	0.46987	6.54000
0.966	0.47237	6.56272
0.969	0.47488	6.58544
0.972	0.47740	6.60813
0.975	0.47993	6.63082
0.978	0.48247	6.65350
0.981	0.48502	6.67616
0.984	0.48757	6.69881
0.987	0.49014	6.72145
0.990	0.49272	6.74407
0.993	0.49531	6.76669
0.996	0.49790	6.78929
0.999	0.50051	6.81188
1.002	0.50312	6.83446
1.005	0.50575	6.85703
1.008	0.50838	6.87958
1.011	0.51102	6.90213
1.014	0.51368	6.92466
1.017	0.51634	6.94719
1.020	0.51901	6.96970
1.023	0.52169	6.99220
1.026	0.52438	7.01469
1.029	0.52707	7.03717
1.032	0.52978	7.05964
1.035	0.53250	7.08210
1.038	0.53522	7.10455
1.041	0.53796	7.12699
1.044	0.54070	7.14942
1.047	0.54345	7.17184
1.050	0.54622	7.19424
1.053	0.54899	7.21664
1.056	0.55177	7.23903
1.059	0.55455	7.26141
1.062	0.55735	7.28377
1.065	0.56016	7.30613
1.068	0.56297	7.32848
1.071	0.56580	7.35082
1.074	0.56863	7.37315
1.077	0.57147	7.39547
1.080	0.57432	7.41778
1.083	0.57718	7.44008
1.086	0.58005	7.46237
1.089	0.58292	7.48465
1.092	0.58581	7.50693
1.095	0.58870	7.52919
1.098	0.59161	7.55145
1.101	0.59452	7.57369
1.104	0.59744	7.59593
1.107	0.60037	7.61816
1.110	0.60330	7.64038
1.113	0.60625	7.66259
1.116	0.60921	7.68479
1.119	0.61217	7.70698
1.122	0.61514	7.72917
1.125	0.61812	7.75134
1.128	0.62111	7.77351
1.131	0.62411	7.79567
1.134	0.62711	7.81782
1.137	0.63013	7.83996
1.140	0.63315	7.86210
1.143	0.63618	7.88422
1.146	0.63922	7.90634
1.149	0.64227	7.92845
1.152	0.64533	7.95055
1.155	0.64839	7.97265
1.158	0.65147	7.99473
1.161	0.65455	8.01681
1.164	0.65764	8.03888
1.167	0.66074	8.06094
1.170	0.66385	8.08299
1.173	0.66696	8.10504
1.176	0.67009	8.12707
1.179	0.67322	8.14910
1.182	0.67636	8.17113
1.185	0.67951	8.19314
1.188	0.68267	8.21515
1.191	0.68583	8.23715
1.194	0.68901	8.25914
1.197	0.69219	8.28112
1.200	0.69538	8.30310
