Material: alloys / Au-Ag / Rioux-Au100Ag0
Optical constants. D. Rioux, S. Vallières, S. Besner, P. Muñoz, E. Mazur and M. Meunier. An analytic model for the dielectric function of Au, Ag, and their alloys, Adv. Opt. Mater. 2, 176-182 (2014) (See Supporting information for MATLAB model)
Comments: 100% Au, 0% Ag. Model fitted on ellipsometric measurements on five different AuAg alloy thin film compositions; Thin film compositions: Au, Au:Ag 2:1, Au:Ag 1:1, Au:Ag 1:2, Ag; Film thickness: 80 nm
wavelength (um)	n	k
0.270	1.45025	1.84309
0.273	1.46582	1.85487
0.276	1.48144	1.86592
0.279	1.49707	1.87622
0.282	1.51271	1.88573
0.285	1.52832	1.89442
0.288	1.54387	1.90226
0.291	1.55933	1.90922
0.294	1.57465	1.91524
0.297	1.58978	1.92031
0.300	1.60468	1.92436
0.303	1.61926	1.92738
0.306	1.63345	1.92930
0.309	1.64716	1.93011
0.312	1.66027	1.92976
0.315	1.67265	1.92825
0.318	1.68417	1.92556
0.321	1.69465	1.92171
0.324	1.70391	1.91676
0.327	1.71176	1.91078
0.330	1.71802	1.90392
0.333	1.72248	1.89636
0.336	1.72500	1.88833
0.339	1.72545	1.88016
0.342	1.72382	1.87216
0.345	1.72013	1.86471
0.348	1.71453	1.85816
0.351	1.70727	1.85282
0.354	1.69864	1.84893
0.357	1.68900	1.84664
0.360	1.67872	1.84600
0.363	1.66815	1.84697
0.366	1.65760	1.84943
0.369	1.64732	1.85324
0.372	1.63752	1.85818
0.375	1.62834	1.86405
0.378	1.61987	1.87063
0.381	1.61216	1.87771
0.384	1.60524	1.88510
0.387	1.59910	1.89262
0.390	1.59370	1.90010
0.393	1.58901	1.90741
0.396	1.58498	1.91439
0.399	1.58155	1.92093
0.402	1.57864	1.92691
0.405	1.57619	1.93223
0.408	1.57411	1.93678
0.411	1.57233	1.94046
0.414	1.57076	1.94318
0.417	1.56928	1.94485
0.420	1.56780	1.94536
0.423	1.56619	1.94463
0.426	1.56431	1.94257
0.429	1.56200	1.93908
0.432	1.55908	1.93408
0.435	1.55534	1.92750
0.438	1.55053	1.91927
0.441	1.54439	1.90936
0.444	1.53660	1.89777
0.447	1.52679	1.88455
0.450	1.51461	1.86981
0.453	1.49964	1.85375
0.456	1.48149	1.83666
0.459	1.45981	1.81894
0.462	1.43431	1.80107
0.465	1.40478	1.78364
0.468	1.37113	1.76727
0.471	1.33342	1.75262
0.474	1.29183	1.74032
0.477	1.24664	1.73099
0.480	1.19826	1.72516
0.483	1.14717	1.72330
0.486	1.09394	1.72579
0.489	1.03918	1.73290
0.492	0.98357	1.74482
0.495	0.92780	1.76160
0.498	0.87257	1.78315
0.501	0.81852	1.80927
0.504	0.76626	1.83963
0.507	0.71631	1.87380
0.510	0.66904	1.91128
0.513	0.62474	1.95152
0.516	0.58357	1.99399
0.519	0.54555	2.03815
0.522	0.51066	2.08353
0.525	0.47876	2.12970
0.528	0.44971	2.17631
0.531	0.42329	2.22306
0.534	0.39930	2.26971
0.537	0.37752	2.31609
0.540	0.35775	2.36206
0.543	0.33979	2.40751
0.546	0.32346	2.45238
0.549	0.30858	2.49663
0.552	0.29501	2.54022
0.555	0.28260	2.58316
0.558	0.27125	2.62543
0.561	0.26083	2.66705
0.564	0.25126	2.70803
0.567	0.24245	2.74838
0.570	0.23432	2.78814
0.573	0.22681	2.82731
0.576	0.21985	2.86591
0.579	0.21341	2.90399
0.582	0.20742	2.94154
0.585	0.20186	2.97860
0.588	0.19667	3.01519
0.591	0.19184	3.05133
0.594	0.18733	3.08704
0.597	0.18311	3.12233
0.600	0.17916	3.15723
0.603	0.17546	3.19176
0.606	0.17199	3.22592
0.609	0.16873	3.25974
0.612	0.16567	3.29322
0.615	0.16280	3.32639
0.618	0.16009	3.35926
0.621	0.15754	3.39184
0.624	0.15514	3.42414
0.627	0.15288	3.45618
0.630	0.15074	3.48796
0.633	0.14873	3.51949
0.636	0.14682	3.55078
0.639	0.14503	3.58185
0.642	0.14333	3.61270
0.645	0.14173	3.64334
0.648	0.14022	3.67378
0.651	0.13879	3.70402
0.654	0.13743	3.73408
0.657	0.13616	3.76395
0.660	0.13495	3.79365
0.663	0.13381	3.82318
0.666	0.13273	3.85255
0.669	0.13172	3.88176
0.672	0.13076	3.91082
0.675	0.12985	3.93973
0.678	0.12900	3.96850
0.681	0.12819	3.99713
0.684	0.12743	4.02562
0.687	0.12672	4.05399
0.690	0.12605	4.08224
0.693	0.12542	4.11036
0.696	0.12483	4.13836
0.699	0.12427	4.16625
0.702	0.12375	4.19403
0.705	0.12327	4.22170
0.708	0.12282	4.24927
0.711	0.12240	4.27673
0.714	0.12201	4.30410
0.717	0.12165	4.33137
0.720	0.12132	4.35855
0.723	0.12101	4.38563
0.726	0.12073	4.41263
0.729	0.12048	4.43954
0.732	0.12025	4.46637
0.735	0.12004	4.49312
0.738	0.11985	4.51979
0.741	0.11969	4.54638
0.744	0.11955	4.57289
0.747	0.11943	4.59933
0.750	0.11932	4.62570
0.753	0.11924	4.65200
0.756	0.11918	4.67823
0.759	0.11913	4.70440
0.762	0.11910	4.73050
0.765	0.11908	4.75653
0.768	0.11909	4.78250
0.771	0.11910	4.80842
0.774	0.11914	4.83427
0.777	0.11919	4.86007
0.780	0.11925	4.88580
0.783	0.11932	4.91149
0.786	0.11941	4.93712
0.789	0.11952	4.96269
0.792	0.11963	4.98822
0.795	0.11976	5.01369
0.798	0.11990	5.03911
0.801	0.12006	5.06449
0.804	0.12022	5.08981
0.807	0.12040	5.11509
0.810	0.12058	5.14033
0.813	0.12078	5.16552
0.816	0.12099	5.19066
0.819	0.12121	5.21577
0.822	0.12144	5.24083
0.825	0.12167	5.26585
0.828	0.12192	5.29082
0.831	0.12218	5.31576
0.834	0.12245	5.34066
0.837	0.12272	5.36552
0.840	0.12301	5.39035
0.843	0.12330	5.41513
0.846	0.12360	5.43988
0.849	0.12391	5.46460
0.852	0.12423	5.48928
0.855	0.12455	5.51393
0.858	0.12489	5.53854
0.861	0.12523	5.56312
0.864	0.12558	5.58766
0.867	0.12593	5.61218
0.870	0.12630	5.63666
0.873	0.12667	5.66111
0.876	0.12705	5.68554
0.879	0.12743	5.70993
0.882	0.12782	5.73429
0.885	0.12822	5.75863
0.888	0.12862	5.78293
0.891	0.12904	5.80721
0.894	0.12945	5.83146
0.897	0.12988	5.85568
0.900	0.13031	5.87988
0.903	0.13074	5.90405
0.906	0.13118	5.92820
0.909	0.13163	5.95232
0.912	0.13208	5.97642
0.915	0.13254	6.00049
0.918	0.13301	6.02453
0.921	0.13348	6.04856
0.924	0.13395	6.07256
0.927	0.13444	6.09653
0.930	0.13492	6.12049
0.933	0.13541	6.14442
0.936	0.13591	6.16833
0.939	0.13641	6.19222
0.942	0.13692	6.21609
0.945	0.13743	6.23993
0.948	0.13795	6.26376
0.951	0.13847	6.28756
0.954	0.13900	6.31135
0.957	0.13953	6.33511
0.960	0.14007	6.35886
0.963	0.14061	6.38258
0.966	0.14115	6.40629
0.969	0.14171	6.42998
0.972	0.14226	6.45365
0.975	0.14282	6.47730
0.978	0.14338	6.50093
0.981	0.14395	6.52455
0.984	0.14452	6.54815
0.987	0.14510	6.57173
0.990	0.14568	6.59529
0.993	0.14627	6.61884
0.996	0.14686	6.64237
0.999	0.14745	6.66589
1.002	0.14805	6.68938
1.005	0.14865	6.71287
1.008	0.14926	6.73633
1.011	0.14987	6.75978
1.014	0.15048	6.78322
1.017	0.15110	6.80664
1.020	0.15172	6.83005
1.023	0.15235	6.85344
1.026	0.15298	6.87681
1.029	0.15361	6.90018
1.032	0.15425	6.92352
1.035	0.15489	6.94686
1.038	0.15553	6.97018
1.041	0.15618	6.99348
1.044	0.15683	7.01678
1.047	0.15749	7.04006
1.050	0.15815	7.06332
1.053	0.15881	7.08657
1.056	0.15948	7.10981
1.059	0.16015	7.13304
1.062	0.16082	7.15626
1.065	0.16150	7.17946
1.068	0.16218	7.20265
1.071	0.16286	7.22583
1.074	0.16355	7.24899
1.077	0.16424	7.27215
1.080	0.16494	7.29529
1.083	0.16563	7.31842
1.086	0.16634	7.34154
1.089	0.16704	7.36465
1.092	0.16775	7.38774
1.095	0.16846	7.41083
1.098	0.16917	7.43390
1.101	0.16989	7.45697
1.104	0.17061	7.48002
1.107	0.17134	7.50306
1.110	0.17206	7.52610
1.113	0.17279	7.54912
1.116	0.17353	7.57213
1.119	0.17426	7.59513
1.122	0.17500	7.61812
1.125	0.17575	7.64110
1.128	0.17649	7.66407
1.131	0.17724	7.68703
1.134	0.17800	7.70999
1.137	0.17875	7.73293
1.140	0.17951	7.75586
1.143	0.18027	7.77879
1.146	0.18104	7.80170
1.149	0.18181	7.82460
1.152	0.18258	7.84750
1.155	0.18335	7.87039
1.158	0.18413	7.89327
1.161	0.18491	7.91614
1.164	0.18569	7.93900
1.167	0.18648	7.96185
1.170	0.18727	7.98469
1.173	0.18806	8.00753
1.176	0.18885	8.03035
1.179	0.18965	8.05317
1.182	0.19045	8.07598
1.185	0.19125	8.09879
1.188	0.19206	8.12158
1.191	0.19287	8.14437
1.194	0.19368	8.16714
1.197	0.19450	8.18991
1.200	0.19531	8.21268
