Material: mixed organic / P3HT-PC61BM / Stelling
Optical constants. C. Stelling, C. R. Singh, M. Karg, T. A. F. König, M. Thelakkat, M. Retsch. Plasmonic nanomeshes: their ambivalent role as transparent electrodes in organic solar cells, Sci. Rep. 7, 42530 (2017) - see Supplementary information (Numerical data kindly provided by Tobias König)
Comments: Isotropic P3HT:PC61BM thin film (thickness 80 nm) on silicon substrate.
wavelength (um)	n	k
0.24718	1.551411	0.096191
0.25038	1.551329	0.100881
0.25358	1.551256	0.104288
0.25678	1.550912	0.106670
0.25998	1.550138	0.108318
0.26318	1.548891	0.109510
0.26638	1.547212	0.110478
0.26958	1.545203	0.111390
0.27278	1.542992	0.112342
0.27598	1.540706	0.113366
0.27918	1.538455	0.114437
0.28238	1.536314	0.115491
0.28558	1.534316	0.116442
0.28878	1.532454	0.117196
0.29198	1.530679	0.117667
0.29518	1.528911	0.117788
0.29838	1.527045	0.117517
0.30158	1.524959	0.116846
0.30478	1.522527	0.115806
0.30798	1.519627	0.114463
0.31118	1.516160	0.112920
0.31438	1.512052	0.111313
0.31758	1.507273	0.109793
0.32078	1.501841	0.108522
0.32398	1.495823	0.107646
0.32718	1.489335	0.107283
0.33038	1.482523	0.107497
0.33358	1.475548	0.108290
0.33678	1.468553	0.109594
0.33998	1.461633	0.111279
0.34318	1.454802	0.113173
0.34637	1.447969	0.115111
0.34957	1.440937	0.116992
0.35277	1.433454	0.118856
0.35597	1.425313	0.120910
0.35917	1.416479	0.123482
0.36237	1.407168	0.126854
0.36556	1.397760	0.131058
0.36876	1.388555	0.135773
0.37196	1.379477	0.140449
0.37516	1.369943	0.144656
0.37835	1.359035	0.148455
0.38155	1.345886	0.152560
0.38475	1.330099	0.158208
0.38794	1.311982	0.166803
0.39114	1.292524	0.179510
0.39434	1.273173	0.196954
0.39753	1.255516	0.219088
0.40073	1.240961	0.245237
0.40392	1.230497	0.274270
0.40712	1.224578	0.304838
0.41032	1.223124	0.335628
0.41351	1.225623	0.365554
0.41671	1.231294	0.393875
0.41990	1.239250	0.420237
0.42309	1.248656	0.444639
0.42629	1.258837	0.467357
0.42948	1.269349	0.488849
0.43268	1.280013	0.509647
0.43587	1.290900	0.530249
0.43906	1.302293	0.551035
0.44226	1.314610	0.572189
0.44545	1.328312	0.593675
0.44864	1.343804	0.615239
0.45183	1.361348	0.636462
0.45503	1.381009	0.656835
0.45822	1.402638	0.675862
0.46141	1.425903	0.693144
0.46460	1.450349	0.708448
0.46779	1.475487	0.721745
0.47098	1.500879	0.733200
0.47417	1.526219	0.743131
0.47736	1.551391	0.751943
0.48055	1.576491	0.760027
0.48374	1.601804	0.767673
0.48693	1.627746	0.774982
0.49012	1.654765	0.781822
0.49331	1.683230	0.787819
0.49650	1.713322	0.792417
0.49969	1.744954	0.794976
0.50287	1.777754	0.794898
0.50606	1.811101	0.791763
0.50925	1.844222	0.785430
0.51243	1.876335	0.776087
0.51562	1.906795	0.764240
0.51881	1.935241	0.750622
0.52199	1.961689	0.736048
0.52518	1.986542	0.721226
0.52836	2.010523	0.706565
0.53155	2.034502	0.692039
0.53473	2.059268	0.677132
0.53791	2.085288	0.660908
0.54110	2.112520	0.642201
0.54428	2.140337	0.619865
0.54746	2.167574	0.593040
0.55065	2.192680	0.561373
0.55383	2.213949	0.525144
0.55701	2.229772	0.485310
0.56019	2.238891	0.443449
0.56337	2.240645	0.401634
0.56655	2.235163	0.362200
0.56973	2.223498	0.327437
0.57291	2.207631	0.299177
0.57609	2.190276	0.278362
0.57927	2.174436	0.264689
0.58245	2.162769	0.256509
0.58562	2.156905	0.251101
0.58880	2.157012	0.245319
0.59198	2.161786	0.236401
0.59515	2.168888	0.222615
0.59833	2.175627	0.203553
0.60151	2.179619	0.180011
0.60468	2.179227	0.153615
0.60786	2.173741	0.126341
0.61103	2.163320	0.100082
0.61420	2.148776	0.076341
0.61738	2.131296	0.056074
0.62055	2.112170	0.039670
0.62372	2.092568	0.027047
0.62689	2.073416	0.017785
0.63006	2.055337	0.011293
0.63323	2.038675	0.006935
0.63640	2.023544	0.004127
0.63957	2.009906	0.002386
0.64274	1.997632	0.001346
0.64591	1.986558	0.000744
0.64908	1.976512	0.000405
0.65225	1.967341	0.000220
0.65541	1.958911	0.000121
0.65858	1.951113	0.000068
0.66175	1.943857	0.000040
0.66491	1.937073	0.000025
0.66808	1.930702	0.000017
0.67124	1.924698	0.000012
0.67441	1.919023	0.000009
0.67757	1.913643	0.000008
0.68073	1.908532	0.000006
0.68389	1.903666	0.000005
0.68706	1.899025	0.000004
0.69022	1.894591	0.000004
0.69338	1.890349	0.000003
0.69654	1.886283	0.000003
0.69970	1.882383	0.000003
0.70285	1.878637	0.000002
0.70601	1.875035	0.000002
0.70917	1.871568	0.000002
0.71233	1.868228	0.000002
0.71548	1.865007	0.000002
0.71864	1.861898	0.000002
0.72179	1.858895	0.000001
0.72495	1.855992	0.000001
0.72810	1.853184	0.000001
0.73125	1.850466	0.000001
0.73441	1.847833	0.000001
0.73756	1.845282	0.000001
0.74071	1.842808	0.000001
0.74386	1.840407	0.000001
0.74701	1.838076	0.000001
0.75016	1.835812	0.000001
0.75331	1.833612	0.000001
0.75646	1.831474	0.000001
0.75960	1.829393	0.000001
0.76275	1.827369	0.000001
0.76590	1.825398	0.000001
0.76904	1.823479	0.000001
0.77219	1.821609	0.000000
0.77533	1.819786	0.000000
0.77847	1.818009	0.000000
0.78162	1.816276	0.000000
0.78476	1.814586	0.000000
0.78790	1.812935	0.000000
0.79104	1.811324	0.000000
0.79418	1.809751	0.000000
0.79732	1.808214	0.000000
0.80046	1.806712	0.000000
0.80359	1.805244	0.000000
0.80673	1.803809	0.000000
0.80987	1.802405	0.000000
0.81300	1.801032	0.000000
0.81614	1.799689	0.000000
0.81927	1.798374	0.000000
0.82240	1.797087	0.000000
0.82554	1.795827	0.000000
0.82867	1.794593	0.000000
0.83180	1.793384	0.000000
0.83493	1.792199	0.000000
0.83806	1.791039	0.000000
0.84119	1.789901	0.000000
0.84431	1.788785	0.000000
0.84744	1.787692	0.000000
0.85057	1.786619	0.000000
0.85369	1.785566	0.000000
0.85682	1.784534	0.000000
0.85994	1.783521	0.000000
0.86306	1.782526	0.000000
0.86618	1.781550	0.000000
0.86931	1.780592	0.000000
0.87243	1.779651	0.000000
0.87555	1.778727	0.000000
0.87866	1.777819	0.000000
0.88178	1.776927	0.000000
0.88490	1.776051	0.000000
0.88802	1.775190	0.000000
0.89113	1.774344	0.000000
0.89425	1.773512	0.000000
0.89736	1.772694	0.000000
0.90047	1.771890	0.000000
0.90359	1.771099	0.000000
0.90670	1.770322	0.000000
0.90981	1.769557	0.000000
0.91292	1.768804	0.000000
0.91602	1.768064	0.000000
0.91913	1.767336	0.000000
0.92224	1.766619	0.000000
0.92535	1.765913	0.000000
0.92845	1.765218	0.000000
0.93155	1.764535	0.000000
0.93466	1.763862	0.000000
0.93776	1.763199	0.000000
0.94086	1.762546	0.000000
0.94396	1.761903	0.000000
0.94706	1.761270	0.000000
0.95016	1.760646	0.000000
0.95326	1.760032	0.000000
0.95635	1.759427	0.000000
0.95945	1.758830	0.000000
0.96255	1.758242	0.000000
0.96564	1.757663	0.000000
0.96873	1.757092	0.000000
0.97182	1.756529	0.000000
0.97492	1.755975	0.000000
0.97801	1.755427	0.000000
0.98109	1.754888	0.000000
0.98418	1.754356	0.000000
0.98727	1.753832	0.000000
0.99036	1.753315	0.000000
0.99344	1.752805	0.000000
0.99653	1.752301	0.000000
0.99961	1.751805	0.000000
1.01567	1.749322	0.000000
1.02248	1.748319	0.000000
1.02929	1.747344	0.000000
1.03609	1.746396	0.000000
1.04290	1.745473	0.000000
1.04970	1.744576	0.000000
1.05651	1.743702	0.000000
1.06331	1.742851	0.000000
1.07011	1.742022	0.000000
1.07692	1.741214	0.000000
1.08372	1.740427	0.000000
1.09052	1.739660	0.000000
1.09733	1.738912	0.000000
1.10413	1.738182	0.000000
1.11093	1.737470	0.000000
1.11773	1.736775	0.000000
1.12453	1.736097	0.000000
1.13134	1.735435	0.000000
1.13814	1.734789	0.000000
1.14494	1.734157	0.000000
1.15175	1.733540	0.000000
1.15855	1.732937	0.000000
1.16535	1.732348	0.000000
1.17216	1.731772	0.000000
1.17896	1.731209	0.000000
1.18577	1.730659	0.000000
1.19258	1.730120	0.000000
1.19938	1.729593	0.000000
1.20619	1.729078	0.000000
1.21300	1.728573	0.000000
1.21981	1.728079	0.000000
1.22662	1.727596	0.000000
1.23343	1.727123	0.000000
1.24025	1.726659	0.000000
1.24706	1.726205	0.000000
1.25388	1.725761	0.000000
1.26069	1.725325	0.000000
1.26751	1.724898	0.000000
1.27433	1.724480	0.000000
1.28115	1.724070	0.000000
1.28798	1.723668	0.000000
1.29480	1.723274	0.000000
1.30163	1.722887	0.000000
1.30845	1.722508	0.000000
1.31528	1.722137	0.000000
1.32212	1.721772	0.000000
1.32895	1.721414	0.000000
1.33578	1.721063	0.000000
1.34262	1.720719	0.000000
1.34946	1.720381	0.000000
1.35630	1.720050	0.000000
1.36315	1.719724	0.000000
1.36999	1.719404	0.000000
1.37684	1.719091	0.000000
1.38369	1.718783	0.000000
1.39055	1.718480	0.000000
1.39740	1.718183	0.000000
1.40426	1.717891	0.000000
1.41112	1.717605	0.000000
1.41798	1.717323	0.000000
1.42485	1.717046	0.000000
1.43172	1.716774	0.000000
1.43859	1.716507	0.000000
1.44547	1.716245	0.000000
1.45235	1.715987	0.000000
1.45923	1.715733	0.000000
1.46611	1.715484	0.000000
1.47300	1.715239	0.000000
1.47989	1.714998	0.000000
1.48678	1.714761	0.000000
1.49368	1.714528	0.000000
1.50058	1.714299	0.000000
1.50749	1.714074	0.000000
1.51440	1.713853	0.000000
1.52131	1.713635	0.000000
1.52822	1.713421	0.000000
1.53514	1.713210	0.000000
1.54206	1.713003	0.000000
1.54899	1.712799	0.000000
1.55592	1.712598	0.000000
1.56286	1.712401	0.000000
1.56980	1.712206	0.000000
1.57674	1.712015	0.000000
1.58369	1.711827	0.000000
1.59064	1.711642	0.000000
1.59759	1.711460	0.000000
1.60455	1.711280	0.000000
1.61152	1.711104	0.000000
1.61849	1.710930	0.000000
1.62546	1.710759	0.000000
1.63244	1.710591	0.000000
1.63942	1.710425	0.000000
1.64641	1.710262	0.000000
1.65340	1.710102	0.000000
1.66039	1.709944	0.000000
1.66740	1.709788	0.000000
1.67440	1.709635	0.000000
1.68141	1.709484	0.000000
