Material: semiconductor alloys / AlAs-GaAs / Adachi-0.700
Optical constants. S. Adachi. Optical dispersion relations for GaP, GaAs, GaSb, InP, InAs, InSb, AlxGa1−xAs, and In1−xGaxAsyP1−y, J. Appl. Phys. 66, 6030-6040 (1989)[Calculation script (Python)]
Comments: AlxGa1-xAs; x=0.700
wavelength (um)	n	k
2.0664e-01	1.5789e+00	2.5067e+00
2.0767e-01	1.5882e+00	2.5208e+00
2.0870e-01	1.5976e+00	2.5352e+00
2.0975e-01	1.6072e+00	2.5502e+00
2.1081e-01	1.6170e+00	2.5656e+00
2.1188e-01	1.6270e+00	2.5816e+00
2.1295e-01	1.6371e+00	2.5981e+00
2.1404e-01	1.6475e+00	2.6153e+00
2.1515e-01	1.6581e+00	2.6331e+00
2.1626e-01	1.6689e+00	2.6517e+00
2.1738e-01	1.6800e+00	2.6710e+00
2.1852e-01	1.6915e+00	2.6911e+00
2.1967e-01	1.7032e+00	2.7121e+00
2.2083e-01	1.7154e+00	2.7340e+00
2.2200e-01	1.7280e+00	2.7570e+00
2.2318e-01	1.7411e+00	2.7811e+00
2.2438e-01	1.7548e+00	2.8064e+00
2.2559e-01	1.7691e+00	2.8330e+00
2.2681e-01	1.7841e+00	2.8611e+00
2.2805e-01	1.8000e+00	2.8906e+00
2.2930e-01	1.8168e+00	2.9219e+00
2.3057e-01	1.8348e+00	2.9549e+00
2.3184e-01	1.8542e+00	2.9899e+00
2.3314e-01	1.8751e+00	3.0271e+00
2.3444e-01	1.8978e+00	3.0666e+00
2.3577e-01	1.9228e+00	3.1085e+00
2.3710e-01	1.9503e+00	3.1531e+00
2.3845e-01	1.9809e+00	3.2006e+00
2.3982e-01	2.0151e+00	3.2511e+00
2.4120e-01	2.0538e+00	3.3047e+00
2.4260e-01	2.0978e+00	3.3615e+00
2.4402e-01	2.1480e+00	3.4214e+00
2.4545e-01	2.2059e+00	3.4843e+00
2.4690e-01	2.2728e+00	3.5497e+00
2.4837e-01	2.3505e+00	3.6168e+00
2.4985e-01	2.4408e+00	3.6842e+00
2.5135e-01	2.5458e+00	3.7499e+00
2.5287e-01	2.6674e+00	3.8110e+00
2.5441e-01	2.8070e+00	3.8632e+00
2.5597e-01	2.9651e+00	3.9012e+00
2.5755e-01	3.1401e+00	3.9185e+00
2.5914e-01	3.3281e+00	3.9082e+00
2.6076e-01	3.5217e+00	3.8646e+00
2.6239e-01	3.7105e+00	3.7844e+00
2.6405e-01	3.8827e+00	3.6691e+00
2.6573e-01	4.0277e+00	3.5252e+00
2.6743e-01	4.1385e+00	3.3632e+00
2.6915e-01	4.2130e+00	3.1949e+00
2.7089e-01	4.2541e+00	3.0309e+00
2.7266e-01	4.2675e+00	2.8791e+00
2.7445e-01	4.2601e+00	2.7437e+00
2.7626e-01	4.2385e+00	2.6266e+00
2.7810e-01	4.2084e+00	2.5274e+00
2.7996e-01	4.1740e+00	2.4448e+00
2.8185e-01	4.1386e+00	2.3767e+00
2.8376e-01	4.1044e+00	2.3213e+00
2.8570e-01	4.0727e+00	2.2765e+00
2.8766e-01	4.0446e+00	2.2405e+00
2.8966e-01	4.0205e+00	2.2119e+00
2.9168e-01	4.0007e+00	2.1892e+00
2.9372e-01	3.9852e+00	2.1714e+00
2.9580e-01	3.9742e+00	2.1576e+00
2.9791e-01	3.9674e+00	2.1469e+00
3.0005e-01	3.9649e+00	2.1388e+00
3.0222e-01	3.9664e+00	2.1328e+00
3.0442e-01	3.9720e+00	2.1283e+00
3.0665e-01	3.9813e+00	2.1250e+00
3.0891e-01	3.9945e+00	2.1225e+00
3.1121e-01	4.0113e+00	2.1207e+00
3.1354e-01	4.0318e+00	2.1193e+00
3.1591e-01	4.0559e+00	2.1180e+00
3.1832e-01	4.0837e+00	2.1167e+00
3.2076e-01	4.1151e+00	2.1153e+00
3.2324e-01	4.1504e+00	2.1135e+00
3.2576e-01	4.1895e+00	2.1112e+00
3.2831e-01	4.2326e+00	2.1083e+00
3.3091e-01	4.2800e+00	2.1047e+00
3.3355e-01	4.3318e+00	2.1001e+00
3.3623e-01	4.3882e+00	2.0946e+00
3.3896e-01	4.4495e+00	2.0879e+00
3.4173e-01	4.5159e+00	2.0802e+00
3.4454e-01	4.5872e+00	2.0714e+00
3.4741e-01	4.6629e+00	2.0618e+00
3.5032e-01	4.7414e+00	2.0523e+00
3.5328e-01	4.8193e+00	2.0442e+00
3.5629e-01	4.8901e+00	2.0402e+00
3.5935e-01	4.9446e+00	2.0438e+00
3.6246e-01	4.9191e+00	1.9203e+00
3.6563e-01	4.8163e+00	1.6603e+00
3.6886e-01	4.7289e+00	1.4929e+00
3.7214e-01	4.6408e+00	1.3567e+00
3.7548e-01	4.5541e+00	1.2350e+00
3.7888e-01	4.4712e+00	1.1202e+00
3.8235e-01	4.3936e+00	1.0083e+00
3.8588e-01	4.3219e+00	8.9703e-01
3.8947e-01	4.2562e+00	7.8497e-01
3.9313e-01	4.1966e+00	6.7125e-01
3.9686e-01	4.1432e+00	5.5524e-01
4.0066e-01	4.1023e+00	4.9316e-01
4.0454e-01	4.0719e+00	4.8802e-01
4.0849e-01	4.0444e+00	4.8206e-01
4.1252e-01	4.0195e+00	4.7524e-01
4.1663e-01	3.9970e+00	4.6748e-01
4.2082e-01	3.9768e+00	4.5872e-01
4.2510e-01	3.9587e+00	4.4885e-01
4.2947e-01	3.9426e+00	4.3771e-01
4.3392e-01	3.9282e+00	4.2509e-01
4.3847e-01	3.9156e+00	4.1065e-01
4.4312e-01	3.9045e+00	3.9379e-01
4.4786e-01	3.8948e+00	3.7325e-01
4.5271e-01	3.8861e+00	3.4391e-01
4.5767e-01	3.8497e+00	3.1703e-01
4.6273e-01	3.8284e+00	3.0650e-01
4.6791e-01	3.8122e+00	2.9444e-01
4.7320e-01	3.7991e+00	2.8084e-01
4.7862e-01	3.7882e+00	2.6547e-01
4.8416e-01	3.7791e+00	2.4795e-01
4.8983e-01	3.7716e+00	2.2767e-01
4.9564e-01	3.7656e+00	2.0355e-01
5.0158e-01	3.7609e+00	1.7345e-01
5.0767e-01	3.7574e+00	1.3125e-01
5.1391e-01	3.7089e+00	5.0464e-02
5.2030e-01	3.6496e+00	4.7041e-02
5.2686e-01	3.6111e+00	4.3442e-02
5.3358e-01	3.5797e+00	3.9893e-02
5.4048e-01	3.5523e+00	3.6464e-02
5.4756e-01	3.5276e+00	3.3201e-02
5.5482e-01	3.5049e+00	3.0140e-02
5.6228e-01	3.4838e+00	2.7316e-02
5.6994e-01	3.4641e+00	2.4764e-02
5.7782e-01	3.4455e+00	2.2519e-02
5.8591e-01	3.4279e+00	2.0620e-02
5.9424e-01	3.4111e+00	1.9106e-02
6.0281e-01	3.3951e+00	1.8020e-02
6.1162e-01	3.3798e+00	1.7406e-02
6.2070e-01	3.3652e+00	1.7002e-02
6.3005e-01	3.3512e+00	1.6605e-02
6.3969e-01	3.3377e+00	1.6216e-02
6.4963e-01	3.3247e+00	1.5835e-02
6.5988e-01	3.3122e+00	1.5460e-02
6.7046e-01	3.3001e+00	1.5093e-02
6.8138e-01	3.2885e+00	1.4733e-02
6.9267e-01	3.2773e+00	1.4380e-02
7.0433e-01	3.2664e+00	1.4033e-02
7.1640e-01	3.2559e+00	1.3692e-02
7.2889e-01	3.2458e+00	1.3358e-02
7.4182e-01	3.2360e+00	1.3030e-02
7.5521e-01	3.2265e+00	1.2708e-02
7.6910e-01	3.2174e+00	1.2391e-02
7.8351e-01	3.2085e+00	1.2080e-02
7.9847e-01	3.1999e+00	1.1775e-02
8.1402e-01	3.1915e+00	1.1474e-02
8.3018e-01	3.1835e+00	1.1179e-02
8.4699e-01	3.1757e+00	1.0888e-02
8.6450e-01	3.1681e+00	1.0602e-02
8.8275e-01	3.1608e+00	1.0321e-02
9.0179e-01	3.1537e+00	1.0044e-02
9.2166e-01	3.1468e+00	9.7711e-03
9.4243e-01	3.1401e+00	9.5025e-03
9.6416e-01	3.1337e+00	9.2378e-03
9.8691e-01	3.1274e+00	8.9769e-03
1.0108e+00	3.1214e+00	8.7197e-03
1.0358e+00	3.1155e+00	8.4661e-03
1.0621e+00	3.1099e+00	8.2159e-03
1.0898e+00	3.1044e+00	7.9690e-03
1.1190e+00	3.0991e+00	7.7254e-03
1.1497e+00	3.0940e+00	7.4848e-03
1.1822e+00	3.0891e+00	7.2471e-03
1.2166e+00	3.0843e+00	7.0123e-03
1.2531e+00	3.0798e+00	6.7803e-03
1.2918e+00	3.0753e+00	6.5509e-03
1.3329e+00	3.0711e+00	6.3240e-03
1.3768e+00	3.0670e+00	6.0996e-03
1.4237e+00	3.0630e+00	5.8775e-03
1.4739e+00	3.0592e+00	5.6577e-03
1.5277e+00	3.0556e+00	5.4400e-03
1.5857e+00	3.0521e+00	5.2243e-03
1.6482e+00	3.0487e+00	5.0106e-03
1.7158e+00	3.0455e+00	4.7988e-03
1.7892e+00	3.0425e+00	4.5887e-03
1.8692e+00	3.0395e+00	4.3804e-03
1.9566e+00	3.0368e+00	4.1737e-03
2.0527e+00	3.0341e+00	3.9685e-03
2.1586e+00	3.0316e+00	3.7648e-03
2.2761e+00	3.0292e+00	3.5624e-03
2.4071e+00	3.0270e+00	3.3614e-03
2.5541e+00	3.0249e+00	3.1616e-03
2.7203e+00	3.0229e+00	2.9629e-03
2.9095e+00	3.0211e+00	2.7653e-03
3.1271e+00	3.0193e+00	2.5686e-03
3.3798e+00	3.0178e+00	2.3729e-03
3.6770e+00	3.0163e+00	2.1781e-03
4.0315e+00	3.0149e+00	1.9840e-03
4.4616e+00	3.0137e+00	1.7907e-03
4.9945e+00	3.0126e+00	1.5979e-03
5.6719e+00	3.0117e+00	1.4058e-03
6.5619e+00	3.0108e+00	1.2141e-03
7.7832e+00	3.0101e+00	1.0229e-03
9.5631e+00	3.0095e+00	8.3205e-04
1.2398e+01	3.0091e+00	6.4148e-04
