Material: semiconductor alloys / AlAs-GaAs / Adachi-0.315
Optical constants. S. Adachi. Optical dispersion relations for GaP, GaAs, GaSb, InP, InAs, InSb, AlxGa1−xAs, and In1−xGaxAsyP1−y, J. Appl. Phys. 66, 6030-6040 (1989)[Calculation script (Python)]
Comments: AlxGa1-xAs; x=0.315
wavelength (um)	n	k
2.0664e-01	1.3796e+00	2.4794e+00
2.0767e-01	1.3889e+00	2.4981e+00
2.0870e-01	1.3984e+00	2.5174e+00
2.0975e-01	1.4081e+00	2.5372e+00
2.1081e-01	1.4182e+00	2.5577e+00
2.1188e-01	1.4287e+00	2.5788e+00
2.1295e-01	1.4395e+00	2.6006e+00
2.1404e-01	1.4507e+00	2.6231e+00
2.1515e-01	1.4623e+00	2.6464e+00
2.1626e-01	1.4745e+00	2.6706e+00
2.1738e-01	1.4871e+00	2.6956e+00
2.1852e-01	1.5004e+00	2.7215e+00
2.1967e-01	1.5143e+00	2.7484e+00
2.2083e-01	1.5290e+00	2.7763e+00
2.2200e-01	1.5444e+00	2.8054e+00
2.2318e-01	1.5608e+00	2.8356e+00
2.2438e-01	1.5781e+00	2.8670e+00
2.2559e-01	1.5966e+00	2.8997e+00
2.2681e-01	1.6164e+00	2.9338e+00
2.2805e-01	1.6376e+00	2.9694e+00
2.2930e-01	1.6604e+00	3.0065e+00
2.3057e-01	1.6851e+00	3.0451e+00
2.3184e-01	1.7118e+00	3.0855e+00
2.3314e-01	1.7409e+00	3.1275e+00
2.3444e-01	1.7727e+00	3.1713e+00
2.3577e-01	1.8076e+00	3.2169e+00
2.3710e-01	1.8460e+00	3.2642e+00
2.3845e-01	1.8883e+00	3.3132e+00
2.3982e-01	1.9353e+00	3.3639e+00
2.4120e-01	1.9874e+00	3.4159e+00
2.4260e-01	2.0455e+00	3.4690e+00
2.4402e-01	2.1102e+00	3.5227e+00
2.4545e-01	2.1825e+00	3.5764e+00
2.4690e-01	2.2632e+00	3.6292e+00
2.4837e-01	2.3531e+00	3.6799e+00
2.4985e-01	2.4531e+00	3.7270e+00
2.5135e-01	2.5637e+00	3.7685e+00
2.5287e-01	2.6852e+00	3.8019e+00
2.5441e-01	2.8170e+00	3.8247e+00
2.5597e-01	2.9582e+00	3.8337e+00
2.5755e-01	3.1065e+00	3.8258e+00
2.5914e-01	3.2586e+00	3.7985e+00
2.6076e-01	3.4101e+00	3.7498e+00
2.6239e-01	3.5560e+00	3.6794e+00
2.6405e-01	3.6908e+00	3.5886e+00
2.6573e-01	3.8098e+00	3.4803e+00
2.6743e-01	3.9091e+00	3.3591e+00
2.6915e-01	3.9871e+00	3.2303e+00
2.7089e-01	4.0435e+00	3.0993e+00
2.7266e-01	4.0797e+00	2.9709e+00
2.7445e-01	4.0983e+00	2.8487e+00
2.7626e-01	4.1023e+00	2.7355e+00
2.7810e-01	4.0949e+00	2.6327e+00
2.7996e-01	4.0791e+00	2.5410e+00
2.8185e-01	4.0575e+00	2.4604e+00
2.8376e-01	4.0324e+00	2.3902e+00
2.8570e-01	4.0054e+00	2.3299e+00
2.8766e-01	3.9781e+00	2.2784e+00
2.8966e-01	3.9513e+00	2.2348e+00
2.9168e-01	3.9260e+00	2.1983e+00
2.9372e-01	3.9026e+00	2.1680e+00
2.9580e-01	3.8816e+00	2.1430e+00
2.9791e-01	3.8632e+00	2.1227e+00
3.0005e-01	3.8476e+00	2.1064e+00
3.0222e-01	3.8349e+00	2.0936e+00
3.0442e-01	3.8252e+00	2.0837e+00
3.0665e-01	3.8184e+00	2.0764e+00
3.0891e-01	3.8146e+00	2.0712e+00
3.1121e-01	3.8137e+00	2.0678e+00
3.1354e-01	3.8157e+00	2.0659e+00
3.1591e-01	3.8206e+00	2.0653e+00
3.1832e-01	3.8283e+00	2.0658e+00
3.2076e-01	3.8389e+00	2.0670e+00
3.2324e-01	3.8522e+00	2.0690e+00
3.2576e-01	3.8684e+00	2.0715e+00
3.2831e-01	3.8874e+00	2.0743e+00
3.3091e-01	3.9093e+00	2.0774e+00
3.3355e-01	3.9340e+00	2.0805e+00
3.3623e-01	3.9616e+00	2.0837e+00
3.3896e-01	3.9922e+00	2.0867e+00
3.4173e-01	4.0259e+00	2.0896e+00
3.4454e-01	4.0629e+00	2.0920e+00
3.4741e-01	4.1031e+00	2.0941e+00
3.5032e-01	4.1469e+00	2.0956e+00
3.5328e-01	4.1944e+00	2.0964e+00
3.5629e-01	4.2460e+00	2.0964e+00
3.5935e-01	4.3018e+00	2.0956e+00
3.6246e-01	4.3622e+00	2.0936e+00
3.6563e-01	4.4276e+00	2.0905e+00
3.6886e-01	4.4984e+00	2.0861e+00
3.7214e-01	4.5750e+00	2.0804e+00
3.7548e-01	4.6576e+00	2.0732e+00
3.7888e-01	4.7458e+00	2.0649e+00
3.8235e-01	4.8386e+00	2.0561e+00
3.8588e-01	4.9324e+00	2.0482e+00
3.8947e-01	5.0200e+00	2.0442e+00
3.9313e-01	5.0897e+00	2.0486e+00
3.9686e-01	5.1195e+00	2.0426e+00
4.0066e-01	4.9909e+00	1.7203e+00
4.0454e-01	4.8861e+00	1.5262e+00
4.0849e-01	4.7801e+00	1.3696e+00
4.1252e-01	4.6758e+00	1.2291e+00
4.1663e-01	4.5766e+00	1.0957e+00
4.2082e-01	4.4841e+00	9.6460e-01
4.2510e-01	4.3988e+00	8.3332e-01
4.2947e-01	4.3212e+00	7.0026e-01
4.3392e-01	4.2510e+00	5.6443e-01
4.3847e-01	4.1898e+00	4.3710e-01
4.4312e-01	4.1468e+00	4.3171e-01
4.4786e-01	4.1071e+00	4.2587e-01
4.5271e-01	4.0705e+00	4.1963e-01
4.5767e-01	4.0367e+00	4.1300e-01
4.6273e-01	4.0054e+00	4.0601e-01
4.6791e-01	3.9764e+00	3.9867e-01
4.7320e-01	3.9494e+00	3.9100e-01
4.7862e-01	3.9245e+00	3.8302e-01
4.8416e-01	3.9013e+00	3.7472e-01
4.8983e-01	3.8799e+00	3.6613e-01
4.9564e-01	3.8600e+00	3.5723e-01
5.0158e-01	3.8417e+00	3.4802e-01
5.0767e-01	3.8247e+00	3.3850e-01
5.1391e-01	3.8092e+00	3.2864e-01
5.2030e-01	3.7949e+00	3.1842e-01
5.2686e-01	3.7819e+00	3.0780e-01
5.3358e-01	3.7701e+00	2.9671e-01
5.4048e-01	3.7594e+00	2.8507e-01
5.4756e-01	3.7499e+00	2.7273e-01
5.5482e-01	3.7416e+00	2.5944e-01
5.6228e-01	3.7342e+00	2.4471e-01
5.6994e-01	3.7279e+00	2.2723e-01
5.7782e-01	3.7137e+00	1.9886e-01
5.8591e-01	3.6942e+00	1.9057e-01
5.9424e-01	3.6818e+00	1.8180e-01
6.0281e-01	3.6720e+00	1.7274e-01
6.1162e-01	3.6639e+00	1.6334e-01
6.2070e-01	3.6573e+00	1.5345e-01
6.3005e-01	3.6520e+00	1.4286e-01
6.3969e-01	3.6478e+00	1.3118e-01
6.4963e-01	3.6448e+00	1.1758e-01
6.5988e-01	3.6428e+00	9.9692e-02
6.7046e-01	3.6418e+00	7.2402e-02
6.8138e-01	3.6045e+00	2.2987e-02
6.9267e-01	3.5675e+00	2.2592e-02
7.0433e-01	3.5424e+00	2.2131e-02
7.1640e-01	3.5217e+00	2.1653e-02
7.2889e-01	3.5035e+00	2.1169e-02
7.4182e-01	3.4871e+00	2.0685e-02
7.5521e-01	3.4720e+00	2.0203e-02
7.6910e-01	3.4579e+00	1.9725e-02
7.8351e-01	3.4447e+00	1.9251e-02
7.9847e-01	3.4323e+00	1.8783e-02
8.1402e-01	3.4205e+00	1.8320e-02
8.3018e-01	3.4092e+00	1.7862e-02
8.4699e-01	3.3986e+00	1.7411e-02
8.6450e-01	3.3883e+00	1.6965e-02
8.8275e-01	3.3786e+00	1.6525e-02
9.0179e-01	3.3692e+00	1.6090e-02
9.2166e-01	3.3602e+00	1.5661e-02
9.4243e-01	3.3516e+00	1.5238e-02
9.6416e-01	3.3433e+00	1.4820e-02
9.8691e-01	3.3354e+00	1.4408e-02
1.0108e+00	3.3277e+00	1.4001e-02
1.0358e+00	3.3204e+00	1.3599e-02
1.0621e+00	3.3133e+00	1.3201e-02
1.0898e+00	3.3065e+00	1.2809e-02
1.1190e+00	3.3000e+00	1.2421e-02
1.1497e+00	3.2937e+00	1.2038e-02
1.1822e+00	3.2876e+00	1.1659e-02
1.2166e+00	3.2818e+00	1.1284e-02
1.2531e+00	3.2762e+00	1.0913e-02
1.2918e+00	3.2708e+00	1.0546e-02
1.3329e+00	3.2656e+00	1.0183e-02
1.3768e+00	3.2607e+00	9.8239e-03
1.4237e+00	3.2559e+00	9.4680e-03
1.4739e+00	3.2514e+00	9.1155e-03
1.5277e+00	3.2470e+00	8.7662e-03
1.5857e+00	3.2428e+00	8.4201e-03
1.6482e+00	3.2388e+00	8.0769e-03
1.7158e+00	3.2350e+00	7.7366e-03
1.7892e+00	3.2314e+00	7.3989e-03
1.8692e+00	3.2279e+00	7.0639e-03
1.9566e+00	3.2246e+00	6.7314e-03
2.0527e+00	3.2215e+00	6.4012e-03
2.1586e+00	3.2185e+00	6.0732e-03
2.2761e+00	3.2157e+00	5.7474e-03
2.4071e+00	3.2131e+00	5.4235e-03
2.5541e+00	3.2106e+00	5.1016e-03
2.7203e+00	3.2083e+00	4.7813e-03
2.9095e+00	3.2061e+00	4.4628e-03
3.1271e+00	3.2041e+00	4.1457e-03
3.3798e+00	3.2022e+00	3.8301e-03
3.6770e+00	3.2005e+00	3.5158e-03
4.0315e+00	3.1989e+00	3.2027e-03
4.4616e+00	3.1975e+00	2.8907e-03
4.9945e+00	3.1962e+00	2.5797e-03
5.6719e+00	3.1951e+00	2.2696e-03
6.5619e+00	3.1941e+00	1.9602e-03
7.7832e+00	3.1933e+00	1.6516e-03
9.5631e+00	3.1926e+00	1.3434e-03
1.2398e+01	3.1920e+00	1.0358e-03
