Material: semiconductor alloys / GaAs-InAs-GaP-InP / Adachi
Optical constants. S. Adachi. Optical dispersion relations for GaP, GaAs, GaSb, InP, InAs, InSb, AlxGa1−xAs, and In1−xGaxAsyP1−y, J. Appl. Phys. 66, 6030-6040 (1989)[Calculation script (Python)]
Comments: In1-xGaxAsyP1-y; x=0.48; y=0.24
wavelength (um)	n	k
2.0664e-01	1.2956e+00	1.8986e+00
2.0767e-01	1.3018e+00	1.9176e+00
2.0870e-01	1.3083e+00	1.9372e+00
2.0975e-01	1.3151e+00	1.9572e+00
2.1081e-01	1.3221e+00	1.9779e+00
2.1188e-01	1.3294e+00	1.9991e+00
2.1295e-01	1.3370e+00	2.0209e+00
2.1404e-01	1.3450e+00	2.0434e+00
2.1515e-01	1.3534e+00	2.0666e+00
2.1626e-01	1.3622e+00	2.0905e+00
2.1738e-01	1.3715e+00	2.1152e+00
2.1852e-01	1.3813e+00	2.1407e+00
2.1967e-01	1.3916e+00	2.1670e+00
2.2083e-01	1.4025e+00	2.1943e+00
2.2200e-01	1.4142e+00	2.2224e+00
2.2318e-01	1.4266e+00	2.2516e+00
2.2438e-01	1.4399e+00	2.2819e+00
2.2559e-01	1.4541e+00	2.3132e+00
2.2681e-01	1.4693e+00	2.3457e+00
2.2805e-01	1.4858e+00	2.3795e+00
2.2930e-01	1.5035e+00	2.4145e+00
2.3057e-01	1.5228e+00	2.4508e+00
2.3184e-01	1.5437e+00	2.4886e+00
2.3314e-01	1.5665e+00	2.5277e+00
2.3444e-01	1.5914e+00	2.5684e+00
2.3577e-01	1.6188e+00	2.6105e+00
2.3710e-01	1.6488e+00	2.6541e+00
2.3845e-01	1.6819e+00	2.6992e+00
2.3982e-01	1.7185e+00	2.7457e+00
2.4120e-01	1.7590e+00	2.7935e+00
2.4260e-01	1.8040e+00	2.8424e+00
2.4402e-01	1.8539e+00	2.8922e+00
2.4545e-01	1.9095e+00	2.9424e+00
2.4690e-01	1.9712e+00	2.9926e+00
2.4837e-01	2.0399e+00	3.0421e+00
2.4985e-01	2.1162e+00	3.0900e+00
2.5135e-01	2.2007e+00	3.1351e+00
2.5287e-01	2.2938e+00	3.1760e+00
2.5441e-01	2.3957e+00	3.2109e+00
2.5597e-01	2.5064e+00	3.2378e+00
2.5755e-01	2.6251e+00	3.2544e+00
2.5914e-01	2.7506e+00	3.2584e+00
2.6076e-01	2.8806e+00	3.2475e+00
2.6239e-01	3.0123e+00	3.2201e+00
2.6405e-01	3.1420e+00	3.1751e+00
2.6573e-01	3.2657e+00	3.1127e+00
2.6743e-01	3.3795e+00	3.0342e+00
2.6915e-01	3.4798e+00	2.9423e+00
2.7089e-01	3.5642e+00	2.8406e+00
2.7266e-01	3.6314e+00	2.7331e+00
2.7445e-01	3.6813e+00	2.6238e+00
2.7626e-01	3.7151e+00	2.5162e+00
2.7810e-01	3.7345e+00	2.4133e+00
2.7996e-01	3.7419e+00	2.3170e+00
2.8185e-01	3.7395e+00	2.2287e+00
2.8376e-01	3.7297e+00	2.1490e+00
2.8570e-01	3.7145e+00	2.0780e+00
2.8766e-01	3.6956e+00	2.0155e+00
2.8966e-01	3.6745e+00	1.9609e+00
2.9168e-01	3.6523e+00	1.9137e+00
2.9372e-01	3.6300e+00	1.8733e+00
2.9580e-01	3.6082e+00	1.8389e+00
2.9791e-01	3.5876e+00	1.8098e+00
3.0005e-01	3.5684e+00	1.7856e+00
3.0222e-01	3.5509e+00	1.7656e+00
3.0442e-01	3.5354e+00	1.7493e+00
3.0665e-01	3.5220e+00	1.7362e+00
3.0891e-01	3.5108e+00	1.7260e+00
3.1121e-01	3.5018e+00	1.7183e+00
3.1354e-01	3.4951e+00	1.7127e+00
3.1591e-01	3.4906e+00	1.7090e+00
3.1832e-01	3.4884e+00	1.7069e+00
3.2076e-01	3.4885e+00	1.7063e+00
3.2324e-01	3.4909e+00	1.7068e+00
3.2576e-01	3.4955e+00	1.7084e+00
3.2831e-01	3.5023e+00	1.7108e+00
3.3091e-01	3.5114e+00	1.7139e+00
3.3355e-01	3.5227e+00	1.7177e+00
3.3623e-01	3.5363e+00	1.7219e+00
3.3896e-01	3.5521e+00	1.7265e+00
3.4173e-01	3.5703e+00	1.7314e+00
3.4454e-01	3.5908e+00	1.7365e+00
3.4741e-01	3.6136e+00	1.7417e+00
3.5032e-01	3.6389e+00	1.7468e+00
3.5328e-01	3.6668e+00	1.7519e+00
3.5629e-01	3.6972e+00	1.7568e+00
3.5935e-01	3.7304e+00	1.7615e+00
3.6246e-01	3.7665e+00	1.7659e+00
3.6563e-01	3.8056e+00	1.7699e+00
3.6886e-01	3.8479e+00	1.7733e+00
3.7214e-01	3.8936e+00	1.7762e+00
3.7548e-01	3.9429e+00	1.7785e+00
3.7888e-01	3.9958e+00	1.7801e+00
3.8235e-01	4.0525e+00	1.7810e+00
3.8588e-01	4.1127e+00	1.7814e+00
3.8947e-01	4.1758e+00	1.7816e+00
3.9313e-01	4.2409e+00	1.7819e+00
3.9686e-01	4.2898e+00	1.7406e+00
4.0066e-01	4.3450e+00	1.7122e+00
4.0454e-01	4.4038e+00	1.6933e+00
4.0849e-01	4.4619e+00	1.6797e+00
4.1252e-01	4.5133e+00	1.6718e+00
4.1663e-01	4.5497e+00	1.6718e+00
4.2082e-01	4.6498e+00	1.9021e+00
4.2510e-01	4.5383e+00	1.6536e+00
4.2947e-01	4.4401e+00	1.4723e+00
4.3392e-01	4.3438e+00	1.3145e+00
4.3847e-01	4.2505e+00	1.1663e+00
4.4312e-01	4.1621e+00	1.0214e+00
4.4786e-01	4.0796e+00	8.7608e-01
4.5271e-01	4.0040e+00	7.2835e-01
4.5767e-01	3.9564e+00	7.0431e-01
4.6273e-01	3.9135e+00	6.8826e-01
4.6791e-01	3.8733e+00	6.7150e-01
4.7320e-01	3.8358e+00	6.5409e-01
4.7862e-01	3.8007e+00	6.3611e-01
4.8416e-01	3.7678e+00	6.1762e-01
4.8983e-01	3.7370e+00	5.9871e-01
4.9564e-01	3.7080e+00	5.7944e-01
5.0158e-01	3.6807e+00	5.5989e-01
5.0767e-01	3.6551e+00	5.4013e-01
5.1391e-01	3.6310e+00	5.2024e-01
5.2030e-01	3.6082e+00	5.0028e-01
5.2686e-01	3.5869e+00	4.8036e-01
5.3358e-01	3.5668e+00	4.6053e-01
5.4048e-01	3.5479e+00	4.4089e-01
5.4756e-01	3.5302e+00	4.2154e-01
5.5482e-01	3.5136e+00	4.0256e-01
5.6228e-01	3.4981e+00	3.8406e-01
5.6994e-01	3.4837e+00	3.6614e-01
5.7782e-01	3.4702e+00	3.4892e-01
5.8591e-01	3.4578e+00	3.3252e-01
5.9424e-01	3.4463e+00	3.1707e-01
6.0281e-01	3.4358e+00	3.0272e-01
6.1162e-01	3.4263e+00	2.8960e-01
6.2070e-01	3.4176e+00	2.7789e-01
6.3005e-01	3.4099e+00	2.6775e-01
6.3969e-01	3.4031e+00	2.5938e-01
6.4963e-01	3.3972e+00	2.5296e-01
6.5988e-01	3.3922e+00	2.4871e-01
6.7046e-01	3.3881e+00	2.4687e-01
6.8138e-01	3.3850e+00	2.4749e-01
6.9267e-01	3.3826e+00	2.4852e-01
7.0433e-01	3.3811e+00	2.4932e-01
7.1640e-01	3.3803e+00	2.4985e-01
7.2889e-01	3.3803e+00	2.5004e-01
7.4182e-01	3.3811e+00	2.4985e-01
7.5521e-01	3.3827e+00	2.4920e-01
7.6910e-01	3.3852e+00	2.4801e-01
7.8351e-01	3.3886e+00	2.4617e-01
7.9847e-01	3.3928e+00	2.4355e-01
8.1402e-01	3.3981e+00	2.3999e-01
8.3018e-01	3.4043e+00	2.3526e-01
8.4699e-01	3.4116e+00	2.2907e-01
8.6450e-01	3.4200e+00	2.2097e-01
8.8275e-01	3.4295e+00	2.1022e-01
9.0179e-01	3.4401e+00	1.9531e-01
9.2166e-01	3.4517e+00	1.6984e-01
9.4243e-01	3.4366e+00	1.4982e-01
9.6416e-01	3.4364e+00	1.3924e-01
9.8691e-01	3.4404e+00	1.2474e-01
1.0108e+00	3.4470e+00	1.0406e-01
1.0358e+00	3.4558e+00	7.0019e-02
1.0621e+00	3.4142e+00	1.2004e-02
1.0898e+00	3.3792e+00	1.1743e-02
1.1190e+00	3.3570e+00	1.1438e-02
1.1497e+00	3.3399e+00	1.1119e-02
1.1822e+00	3.3256e+00	1.0794e-02
1.2166e+00	3.3132e+00	1.0466e-02
1.2531e+00	3.3023e+00	1.0137e-02
1.2918e+00	3.2924e+00	9.8087e-03
1.3329e+00	3.2834e+00	9.4810e-03
1.3768e+00	3.2751e+00	9.1546e-03
1.4237e+00	3.2675e+00	8.8297e-03
1.4739e+00	3.2604e+00	8.5066e-03
1.5277e+00	3.2539e+00	8.1854e-03
1.5857e+00	3.2477e+00	7.8662e-03
1.6482e+00	3.2420e+00	7.5490e-03
1.7158e+00	3.2366e+00	7.2338e-03
1.7892e+00	3.2316e+00	6.9205e-03
1.8692e+00	3.2269e+00	6.6092e-03
1.9566e+00	3.2225e+00	6.2998e-03
2.0527e+00	3.2183e+00	5.9923e-03
2.1586e+00	3.2145e+00	5.6865e-03
2.2761e+00	3.2109e+00	5.3824e-03
2.4071e+00	3.2075e+00	5.0800e-03
2.5541e+00	3.2043e+00	4.7792e-03
2.7203e+00	3.2014e+00	4.4798e-03
2.9095e+00	3.1987e+00	4.1819e-03
3.1271e+00	3.1962e+00	3.8852e-03
3.3798e+00	3.1939e+00	3.5898e-03
3.6770e+00	3.1918e+00	3.2955e-03
4.0315e+00	3.1899e+00	3.0022e-03
4.4616e+00	3.1881e+00	2.7099e-03
4.9945e+00	3.1866e+00	2.4185e-03
5.6719e+00	3.1852e+00	2.1279e-03
6.5619e+00	3.1840e+00	1.8379e-03
7.7832e+00	3.1830e+00	1.5485e-03
9.5631e+00	3.1822e+00	1.2597e-03
1.2398e+01	3.1815e+00	9.7120e-04
